80

In 1.71188590165 7.670460233409999 6.672445870789999
Ga 6.968042261650001 7.645814553409999 6.64403991579
Al 3.6327372784899996 1.32955512969 1.87132569875
Ga 8.88889363849 1.3049094496899998 1.84291974375
In 1.0131307280100001 3.15965971273 1.88008901421
In 6.26928708801 3.1350140327299996 1.85168305921
Ga 4.331492452130001 5.840355650369999 6.663682555329999
In 9.58764881213 5.815709970369999 6.635276600329999
Al 0.9684476925200001 5.91687746744 -0.022803961105
Ga 6.224604052520001 5.89223178744 -0.051209916105
Ga 4.35566983248 3.07179319756 4.7768126911049995
Ga 9.61182619248 3.04714751756 4.748406736105
Ga 1.7198749206400001 1.42831484588 4.795970608285
Al 6.97603128064 1.40366916588 4.767564653285
Ga 3.6562874143600004 7.589149469119999 9.576725531714999
Ga 8.91244377436 7.564503789119999 9.548319576715
Ga 0.9362851964700001 0.2945919677099999 9.60348865155
Ga 6.1924415564699995 0.26994628771 9.57508269655
In 4.439773048909999 8.72281475999 4.74997011363
In 9.69592940891 8.698169079989999 4.72156415863
In 1.7932418145100004 4.77561301119 4.77602185993
In 7.04939817451 4.75096733119 4.74761590493
Ga 3.5828164308700003 4.241793716509999 9.57743690525
Ga 8.83897279087 4.217148036509999 9.54903095025
Ga 3.6480107573900007 1.41860867639 7.546221056355
Ga 8.904167117390001 1.39396299639 7.5178151013550005
Ga 1.70598048855 7.586589543709999 2.7289142469849996
Ga 6.962136848549999 7.561943863709999 2.700508291985
Ga 4.32625805919 5.90046767299 2.719720067205
Ga 9.58241441919 5.87582199299 2.6913141122049997
In 1.0277331867500001 3.10473054711 7.555415236135
Ga 6.283889546750001 3.08008486711 7.527009281135
O 4.43188666821 6.02555861961 8.547923806055
O 9.68804302821 6.00091293961 8.519517851055
O 0.9331380774500002 2.98574385429 3.766373228205
O 6.18929443745 2.96109817429 3.737967273205
O 3.5544221783300003 1.51559605205 3.756532751945
O 8.81057853833 1.49095037205 3.728126796945
O 1.81060256733 7.49570642185 8.557764282315
O 7.0667589273299996 7.47106074185 8.529358327315
O 2.7925957233300007 0.08616249953 6.034998893335
O 8.048752083330001 0.06151681953 6.006592938335
O 2.54494936265 8.909936927170001 1.200631188445
O 7.801105722650001 8.88529124717 1.172225233445
O 5.15281306033 4.56013487853 1.199407998585
O 10.408969420330001 4.5354891985300005 1.171002043585
O 0.18473202565 4.435964548169999 6.036222083195
O 5.44088838565 4.4113188681699995 6.0078161281949995
O 0.11982312193 7.4452207894899995 1.141164787745
O 5.37597948193 7.42057510949 1.112758832745
O 5.21688924709 1.5504179388099997 5.940566295475
O 10.47304560709 1.5257722588099996 5.912160340474999
O 2.59526963613 2.94857438489 5.950622203895
O 7.8514259961300015 2.9239287048900002 5.922216248894999
O 2.74144273289 6.04706434341 1.131108879325
O 7.99759909289 6.02241866341 1.102702924325
O 5.1772074353 7.50851254694 6.08662624762
O 10.4333637953 7.48386686694 6.05822029262
O 0.16127445726 1.4881051654600002 1.3221402075400002
O 5.417430817260001 1.46345948546 1.29373425254
O 2.79648222646 3.00559864386 1.30335929664
O 8.052638586459999 2.98095296386 1.27495334164
O 2.5419996661 5.99101906854 6.10540715852
O 7.7981560261 5.96637338854 6.07700120352
O 1.9496728406200001 1.5458545288199999 8.314950813905
O 7.20582920062 1.52120884882 8.286544858905
O 3.4125414853000002 7.463893087979999 3.479937100215
O 8.668697845299999 7.439247407979999 3.4515311452149997
O 0.7777531037000001 6.03638880478 3.498448720915
O 6.033909463700001 6.01174312478 3.4700427659149997
O 4.58446122222 2.9733588120200003 8.296439193205
O 9.84061758222 2.9487131320200004 8.268033238205
O 4.44102898472 0.01430941604 8.6330443616
O 9.697185344720001 -0.01033626396 8.6046384066
O 0.9247243882800001 8.99739616896 3.8159142964
O 6.18088074828 8.97275048896 3.7875083414
O 3.5319170658000005 4.503611407999999 3.81512197086
O 8.788073425799999 4.4789657279999995 3.78671601586
O 1.8338363072000001 4.508094176999999 8.63383668714
O 7.089992667200001 4.4834484969999995 8.60543073214
