30

Al -0.00096818895968 0.00165347546848 1.9729636809389202
Ga -0.00424254895968 0.00724543546848 8.64541464593892
Al -0.00558053104032 0.00953044453152 11.371938249061081
Al -0.00230617104032 0.00393848453152 4.699487284061081
Al 2.450746725695384 1.432937311319126 6.42088202313951
Al 2.4474723656953836 1.438529271319126 13.09333298813951
Al 2.452683103614744 1.4296303603821658 2.4749546612616697
Al 2.449408743614744 1.435222320382166 9.14740562626167
Al -0.0147596636147433 2.847872749617834 10.867489838738331
In -0.0114853036147433 2.8422807896178344 4.195038873738331
Ga -0.0128232856953833 2.844565798680874 6.921562476860491
Al -0.0095489256953833 2.8389738386808743 0.2491115118604906
O 3.4091441539772003 0.0141359119216 3.3371346087024003
O 0.7472513109376 1.3098255270484 3.3354726242452
O -1.7168348449147999 2.9507456910300003 3.3336117845524003
O 1.6906721290624003 2.9676775829516 10.0069718757548
O -0.7624629450852001 1.3104089789700002 10.0075220554476
O 1.5015283560228 0.0133964480784 10.009077981297601
O 0.9436378386322635 1.429071307772246 7.78374229090299
O 3.198966225592663 2.741109362899046 7.78339096644579
O 3.2076291397402636 0.1320587768806459 7.78529821675299
O 1.7044636037174634 0.1214583088022459 1.1124457179553895
O 1.6958006895698639 2.7305088948206455 1.1105384676481893
O 3.9597919906778634 1.433496363929046 1.1120943934981895
O -1.5218685506778633 2.844006746070954 12.230350106501811
O 0.7334598362825362 4.156044801197754 12.229998782044612
O 0.7421227504301366 1.546994215179354 12.231906032351812
O -0.7610427855926634 1.536393747100954 5.559053533554211
O -0.7697056997402634 4.145444333119354 5.557146283247011
O 1.4942856013677364 2.848431802227754 5.558702209097011
