80

Ga 1.80387600757 8.14718802834 7.02867608257
In 7.411273882570001 8.14001249334 6.99403058257
Ga 3.8721684490299997 1.4257507440999997 1.9701806953900003
Ga 9.47956632403 1.4185752090999997 1.9355351953900002
In 1.07087033607 3.35532014468 1.9778424095700002
In 6.678268211070001 3.34814460968 1.9431969095700001
Ga 4.605174120530001 6.21761862776 7.0210143683899995
In 10.212571995530002 6.21044309276 6.98636886839
In 1.011544727285 6.272457730555 -0.03767165128
In 6.618942602285 6.265282195555 -0.07231715128
In 4.639484117715 3.280405654445 5.03424241128
In 10.246881992715 3.2732301194450004 4.99959691128
In 1.8335982905350001 1.529633914585 5.06036531272
In 7.440996165535 1.522458379585 5.02571981272
In 3.8809219544650007 8.074182230414998 10.094291787280001
In 9.488319829465002 8.067006695414998 10.05964628728
In 1.0058273097000001 0.3357331935599999 10.14067300236
In 6.613225184699999 0.32855765856 10.10602750236
In 4.7085659525 9.26798104592 4.9936679249600004
In 10.315963827500001 9.26080551092 4.959022424960001
In 1.8996374962000002 5.07636129582 5.03203451536
In 7.5070353712000015 5.06918576082 4.9973890153600005
In 3.814755766 4.5273529436599995 10.10230641196
In 9.422153641 4.5201774086599995 10.067660911960001
In 3.892901263565 1.532110899425 7.963172957210001
In 9.500299138565001 1.5249353644249999 7.92852745721
In 1.794571645035 8.049999369815 2.86413936195
In 7.401969520034999 8.042823834815 2.82949386195
In 4.596059922314999 6.272982969875001 2.85571241721
In 10.203457797315 6.265807434875001 2.82106691721
In 1.0914129862850002 3.3091272993650005 7.97159990195
In 6.698810861285001 3.3019517643650005 7.9369544019500005
O 4.713181904205 6.418174635424999 9.010453779330001
O 10.320579779205 6.410999100424999 8.97580827933
O 0.9877511811950002 3.1747376189349996 3.9703728439100003
O 6.595149056195001 3.1675620839349996 3.9357273439100005
O 3.7895247049550003 1.6265507199550002 3.9607980533300005
O 9.396922579955001 1.6193751849550002 3.9261525533300006
O 1.911408380445 7.966361534404999 9.02002856991
O 7.518806255445 7.959185999404999 8.98538306991
O 2.983926942405 0.114093193025 6.370816978170001
O 8.591324817404999 0.106917658025 6.336171478170001
O 2.6834826837949994 9.451916004055 1.24654005755
O 8.290880558795001 9.444740469055 1.2118945575500002
O 5.481452921155 4.852669092275 1.2522698781700001
O 11.088850796155 4.845493557275 1.21762437817
O 0.185956705045 4.713340104805 6.3650871575500005
O 5.793354580045 4.706164569805 6.330441657550001
O 0.101622545815 7.891140871514999 1.18905591007
O 5.7090204208149995 7.883965336514999 1.1544104100700001
O 5.564771217984999 1.6740530814049996 6.26577174421
O 11.172169092985001 1.6668775464049996 6.23112624421
O 2.762902612065 3.145963480065 6.27572915007
O 8.370300487065 3.138787945065 6.24108365007
O 2.903491151735 6.419230472854999 1.17909850421
O 8.510889026735 6.412054937854999 1.14445300421
O 5.50082244815 7.986892961759999 6.407248189070001
O 11.10822032315 7.979717426759999 6.372602689070001
O 0.16773002325 1.5800333850000001 1.39295440077
O 5.77512789825 1.5728578500000001 1.3583089007700002
O 2.9734494566500005 3.1973212493 1.3675010760700002
O 8.580847331649998 3.1901457143 1.3328555760700003
O 2.69510301475 6.36960509746 6.4327015137700005
O 8.30250088975 6.36242956246 6.398056013770001
O 2.081274681175 1.6624103538250001 8.77626517024
O 7.688672556175001 1.6552348188250001 8.74161967024
O 3.616229868625 7.927750451494999 3.65602479064
O 9.223627743625 7.920574916494999 3.62137929064
O 0.8106292879250001 6.405808212595001 3.68099984624
O 6.418027162925001 6.398632677595001 3.6463543462400003
O 4.886875261875001 3.1843525927250003 8.75129011464
O 10.494273136875 3.1771770577250003 8.71664461464
O 4.74493876877 0.04939329928 9.11326624109
O 10.352336643770002 0.04221776428 9.07862074109
O 0.9568831962300001 9.544232293719999 4.00977359091
O 6.56428107123 9.537056758719999 3.9751280909100006
O 3.7546632692700004 4.792432381299999 4.01626864209
O 9.362061144270001 4.785256846299999 3.9816231420900006
O 1.9471586957300002 4.8011932117 9.10677118991
O 7.554556570730001 4.7940176767 9.072125689910001
