80

In 1.65975975046 7.55704758144 6.593481202789999
In 6.843807730460001 7.54558794144 6.573199212789999
In 3.57681490076 1.31758615122 1.85341247701
Al 8.76086288076 1.30612651122 1.83313048701
Al 0.9887109409399999 3.1142234868 1.85914568455
Al 6.17275892094 3.1027638468 1.8388636945499999
In 4.247863710280001 5.760410245860001 6.587747995249999
Al 9.43191169028 5.748950605860001 6.567466005249999
Al 0.9407137956399999 5.83169696826 -0.01798851655
In 6.12476177564 5.82023732826 -0.03827050655
Al 4.28126408936 3.03402787674 4.72364664655
Al 9.46531206936 3.02256823674 4.70336465655
Al 1.6856693788 1.40843599938 4.7378026558699995
Al 6.869717358799999 1.39697635938 4.7175206658699995
Al 3.5733561362 7.479900235619999 9.463377174129999
Al 8.7574041162 7.468440595619999 9.44309518413
Al 0.90851282571 0.2866399227899999 9.481964182079999
Al 6.092560805709999 0.27518028279 9.46168219208
Al 4.350438594029999 8.60165108943 4.70022460452
In 9.53448657403 8.59019144943 4.67994261452
Al 1.7498759244300002 4.706394241830001 4.71996672072
Al 6.93392390443 4.694934601830001 4.69968473072
Al 3.5090754953100003 4.18189677039 9.462222065879999
Al 8.69312347531 4.17043713039 9.44194007588
In 3.58327610724 1.4018882805600001 7.4556565601399996
In 8.767324087240002 1.3904286405600002 7.43537457014
Al 1.6599671173800001 7.476815502299999 2.7004310256599995
In 6.844015097379999 7.465355862299999 2.6801490356599995
In 4.248381574639999 5.82203222736 2.6943486864399997
In 9.432429554639999 5.81057258736 2.6740666964399997
In 0.99486164998 3.0566715555 7.46173889936
Al 6.178909629980001 3.0452119155 7.44145690936
O 4.3436419832199995 5.941964840220001 8.44808904002
O 9.52768996322 5.930505200220001 8.42780705002
O 0.9074553389600002 2.9415325573200004 3.72104914618
O 6.09150331896 2.9300729173200004 3.70076715618
O 3.49633554238 1.49953037334 3.71444310944
O 8.680383522380001 1.48807073334 3.69416111944
O 1.7547617798 7.3839670241999995 8.45469507676
O 6.9388097598 7.3725073841999995 8.43441308676
O 2.74510280358 0.08799916242 5.96183871798
O 7.929150783579999 0.07653952242 5.941556727979999
O 2.48643336996 8.7835594212 1.19366401062
O 7.67048134996 8.7720997812 1.1733820206199999
O 5.069103624579999 4.50447602442 1.1940406074799998
O 10.25315160458 4.49301638442 1.1737586174799999
O 0.16243254896 4.3670825592 5.961462121119999
O 5.346480528959999 4.3556229192 5.941180131119999
O 0.09829231936 7.334645842919999 1.13060815214
O 5.28234029936 7.323186202919999 1.1103261621399998
O 5.132651092100001 1.53655095846 5.872966229259999
O 10.3166990721 1.52509131846 5.852684239259999
O 2.5436156399599996 2.90762611212 5.8797468318399995
O 7.727663619960001 2.89616647212 5.8594648418399995
O 2.6873277715 5.96357068926 1.1238275495599999
O 7.8713757515 5.95211104926 1.10354555956
O 5.078735109649999 7.406296086389999 6.020208440769999
O 10.262783089649998 7.394836446389999 5.999926450769999
O 0.15346792123 1.4656695022500001 1.30621367843
O 5.337515901230001 1.4542098622500002 1.28593168843
O 2.74879094653 2.9671390765500005 1.29236315933
O 7.93283892653 2.9556794365500005 1.27208116933
O 2.48341208435 5.9048265120900005 6.034058959869999
O 7.667460064349999 5.8933668720900005 6.013776969869999
O 1.9068236036599997 1.5226439280000001 8.212090469709999
O 7.09087158366 1.5111842880000002 8.19180847971
O 3.3422731465 7.359632454479999 3.4442895446899997
O 8.5263211265 7.348172814479999 3.4240075546899997
O 0.7471441821000001 5.94682166808 3.4579218564899996
O 5.931192162099999 5.93536202808 3.4376398664899996
O 4.50195256806 2.9354547144 8.19845815791
O 9.686000548059999 2.9239950744 8.17817616791
O 4.367226384369999 0.01963587075 8.52899196563
O 9.55127436437 0.00817623075 8.50870997563
O 0.88438960463 8.864178086249998 3.77308352437
O 6.068437584629999 8.852718446249998 3.75280153437
O 3.4667493618100003 4.44324062883 3.77380925291
O 8.650797341809998 4.43178098883 3.75352726291
O 1.78486662719 4.44057332817 8.52826623709
O 6.96891460719 4.42911368817 8.50798424709
