80

Al -0.0719340275 -0.051860125 5.921512055
Al -0.2158020825 -0.155580375 17.764536165
Al 4.457854162499999 2.900118815 6.000696445
Al 4.3139861075 2.796398565 17.843720555
Al 3.0452669775 0.116476745 5.96029353
Al 2.9013989225000003 0.012756495 17.80331764
Al 1.3406531575 2.731781945 5.96191497
Al 1.1967851025 2.628061695 17.80493908
Al 0.0 0.0 0.0
Ga -0.143868055 -0.10372025 11.84302411
In 4.52978819 2.95197894 0.07918439
Al 4.385920134999999 2.84825869 11.9222085
In 3.117201005 0.16833687 0.038781475
Al 2.97333295 0.06461662 11.881805585
Al 1.412587185 2.78364207 0.040402915
In 1.26871913 2.67992182 11.883427025
Al -0.1332994911955 1.773539062591 2.9747627450215
In -0.2771675461955 1.669818812591 14.8177868550215
Al -1.8379133111955 4.388844262591 2.9763841850215
Al -1.9817813661955 4.285124012591 14.8194082950215
Al 2.9839015138044993 1.9418759325909998 3.0135442200215
Al 2.8400334588044993 1.838155682591 14.8565683300215
Al 1.2792876938044992 4.557181132591 3.0151656600215
Al 1.1354196388044993 4.453460882591 14.8581897700215
Al 1.4020186211955 0.9063827574089999 8.9086642799785
Al 1.2581505661955 0.8026625074089999 20.7516883899785
Al -0.3025951988045003 3.5216879574089996 8.9102857199785
Al -0.4464632538045002 3.417967707409 20.7533098299785
Al 4.519219626195501 1.0747196274089998 8.9474457549785
Al 4.375351571195501 0.9709993774089999 20.7904698649785
Al 2.814605806195501 3.6900248274089997 8.9490671949785
In 2.670737751195501 3.586304577409 20.7920913049785
O -0.15687946541 1.756539313616 4.9158343966505
O -0.30074752041 1.652819063616 16.758858506650498
O -1.8614932854100001 4.371844513616 4.9174558366504995
O -2.00536134041 4.2681242636159995 16.7604799466505
O 2.9603215395899993 1.9248761836159998 4.9546158716505
O 2.8164534845899993 1.821155933616 16.797639981650498
O 1.2557077195899993 4.540181383616 4.9562373116505
O 1.1118396645899993 4.436461133616 16.7992614216505
O 1.42559859541 0.9233825063839999 6.967592628349499
O 1.28173054041 0.8196622563839998 18.810616738349502
O -0.2790152245900002 3.5386877063839997 6.969214068349499
O -0.4228832795900003 3.434967456384 18.8122381783495
O 4.542799600410001 1.0917193763839999 7.0063741033495
O 4.398931545410001 0.9879991263839998 18.849398213349502
O 2.838185780410001 3.7070245763839997 7.0079955433495
O 2.694317725410001 3.603304326384 18.8510196533495
O 1.3784386469809997 0.8893830084339999 10.849735931607501
O 1.2345705919809997 0.7856627584339999 22.6927600416075
O -0.3261751730190003 3.5046882084339996 10.8513573716075
O -0.4700432280190002 3.400967958434 22.6943814816075
O 4.495639651981001 1.0577198784339998 10.8885174066075
O 4.351771596981001 0.9539996284339999 22.7315415166075
O 2.791025831981001 3.6730250784339997 10.8901388466075
O 2.647157776981001 3.569304828434 22.7331629566075
O -0.109719516981 1.790538811566 1.0336910933924999
O -0.253587571981 1.686818561566 12.8767152033925
O -1.814333336981 4.405844011566 1.0353125333925
O -1.958201391981 4.3021237615659995 12.878336643392501
O 3.0074814880189993 1.9588756815659998 1.0724725683925
O 2.8636134330189993 1.855155431566 12.9154966783925
O 1.3028676680189994 4.574180881566 1.0740940083925
O 1.1589996130189995 4.470460631566 12.917118118392501
O -0.03596701375 -0.0259300625 2.9607560275
O -0.17983506875 -0.1296503125 14.8037801375
O 4.49382117625 2.9260488775 3.0399404175
O 4.3499531212499996 2.8223286275 14.8829645275
O 3.08123399125 0.1424068075 2.9995375025
O 2.93736593625 0.0386865575 14.8425616125
O 1.37662017125 2.7577120075 3.0011589425
O 1.23275211625 2.6539917575 14.8441830525
O -0.10790104125 -0.0777901875 8.8822680825
O -0.25176909625 -0.1815104375 20.7252921925
O 4.42188714875 2.8741887525 8.9614524725
O 4.278019093749999 2.7704685025 20.8044765825
O 3.00929996375 0.0905466825 8.9210495575
O 2.86543190875 -0.0131735675 20.7640736675
O 1.3046861437500001 2.7058518824999997 8.9226709975
O 1.1608180887500001 2.6021316325 20.7656951075
