30

Ga -0.00094158295344 0.00230488943844 1.9914006926263201
Al -0.00412596295344 0.01009989443844 8.72620458262632
Ga -0.00542717704656 0.01328512056156 11.478207087373681
In -0.00224279704656 0.00549011556156 4.743403197373681
Ga 2.480050665360916 1.4559280617929165 6.480488674417979
Ga 2.476866285360916 1.4637230667929164 13.215292564417979
Al 2.481933831267796 1.4513182829160365 2.4976872891653388
Al 2.478749451267796 1.4591132879160364 9.232491179165338
Al -0.0180516012677957 2.887147117083964 10.967989580834661
Al -0.0148672212677957 2.8793521120839642 4.233185690834661
Al -0.0161684353609157 2.8825373382070842 6.9851881955820225
Ga -0.0129840553609157 2.874742333207084 0.2503843055820215
O 3.4521068773616 0.0194379240424 3.3685028973444
O 0.7551939032963999 1.3282536069804003 3.3661976714124
O -1.7418263606580002 2.9868763664772007 3.3635743562432
O 1.7086883267036 3.0102117930196006 10.0994791985876
O -0.773385849342 1.3291848735228002 10.1005153037568
O 1.5206188026384 0.0185562459576 10.1026920926556
O 0.9540046856759555 1.4506569363968764 7.856003669136059
O 3.236186151610755 2.7818767793348766 7.855285653204058
O 3.248009337656356 0.1400283088316764 7.858180458034859
O 1.7257983450179555 0.1253695653740764 1.1228903103792585
O 1.7139751589723558 2.7672180358772764 1.1199955055484585
O 4.0079798109527545 1.4565894083120765 1.1221722944472585
O -1.5440975809527557 2.881875991687924 12.343504575552743
O 0.7380838849820438 4.213095834625924 12.342786559620743
O 0.7499070710276444 1.5712473641227238 12.345681364451542
O -0.7723039216107556 1.5565886206651238 5.610391216795942
O -0.7841271076563557 4.198437091168324 5.607496411965142
O 1.5098775443240438 2.887808463603124 5.609673200863942
