80

Ga 7.381219987499999 2.456148295 7.3724462825
In 2.4596858375 7.369704500000001 7.382728252500001
Ga 7.372996282499999 7.379726085000001 2.4604900325
In 7.377386617499999 7.3738195200000005 7.3781419575000005
Al 2.4552955025 7.375611065000001 2.4650763275000003
In 7.376829652499999 2.4620548600000003 2.4547943575
In 2.4635192075 2.4520332750000002 7.3770325775000005
Ga 2.4591288725 2.4579398400000003 2.4593806525
In 7.377368804159999 4.5835355467 4.9160808516
Al 2.4514443191599997 9.502998316700001 0.0087108966
Ga 7.372457130839999 5.258245398300001 -0.0007964616
Ga 4.916042517219999 7.3751169389200015 4.587208811600001
In 0.00656544222 2.4474241289200003 9.5037513566
In -0.00106117722 7.3701986260800005 5.260595768400001
Ga 4.58604925946 4.91264657614 7.377899135560001
Ga 9.503193074459999 0.00499693614 2.44996524056
In 5.25868993554 -0.00446500614 7.371579724440001
In 2.45914668584 5.248223813300001 4.9214417584
In 7.376290500839999 0.3405741733000001 -0.0064921366
Ga 2.45527768916 4.585327091700001 0.0030152216
Ga 4.920472972779999 2.45664242108 5.250313798400001
In -0.00545151222 7.376105191080001 0.3429438434000001
Ga 0.00217510722 2.4533306939200004 4.586099431600001
In 5.25046623054 4.91911278386 2.4596234744400003
Ga 0.34098915554 -0.00858002614 7.37616601944
In 4.58549229446 0.00088191614 2.4545515355600003
Al 2.46298005584 0.3305525883000001 4.9157460834
Ga 4.91608263778 2.4625489860800003 0.3326618734
In 0.33276545054 4.914997763860001 2.46420976944
In 7.373535434159999 9.501206771700001 4.9217765266
In 4.920432852219999 7.3692103739200014 9.5048607366
In 9.503750039459998 4.91676159614 7.373312840560001
O 6.100711391379999 3.8429721094700007 6.450726337650001
O 3.73803241294 8.75644725643 8.307660558050001
O 8.651854112659999 5.99512313897 1.5331728535500002
O 6.1006908080199995 5.98485589513 8.30224677575
O 6.45070328653 6.098692291410001 3.8466492233100005
O 8.305989132410001 3.7338507859300005 8.75984277739
O 1.53292334019 8.649191046070001 5.998293508610001
O 8.301672965869999 6.097664276590001 5.989021015690001
O 3.84605664392 6.447878452240001 6.10177462991
O 8.760208716 8.30387300404 3.7388569847100004
O 5.996290528199999 1.52892996216 8.65125833129
O 5.98873283688 8.29871698156 6.10191657909
O 3.73580409862 5.98878725053 3.38679627235
O 6.098483077059999 1.07531210357 1.5298620519500001
O 1.1846613773399999 3.836636221030001 8.30434975645
O 3.73582468198 3.8469034648700005 1.5352758342500001
O 3.385812203469999 3.7330670685900005 5.990873386690001
O 1.5305263575899999 6.097908574070001 1.07767983261
O 8.303592149810001 1.18256831393 3.8392291013900004
O 1.5348425241299999 3.7340950834100006 3.8485015943100005
O 5.990458846079999 3.38388090776 3.73574798009
O 1.0763067739999999 1.5278863559600002 6.098665625290001
O 3.8402249617999997 8.30282939784 1.18626427871
O 3.84778265312 1.5330423784400002 3.7356060309100005
O 1.1747869063799998 8.76243487947 1.54335638265
O 8.65517622794 3.84879761643 3.37972666305
O 3.7423770376600003 1.06743032897 6.44971539855
O 1.18243306302 1.06897621513 3.38348547075
O 1.5412262115299997 1.17099948141 8.763191768310001
O 3.3800646474099993 8.653313555930001 3.85247282239
O 6.45006715519 3.7415414060700005 1.07035961361
O 3.383415220869999 1.18178459659 1.07025971069
O 8.76320045892 1.54022881224 1.17384073491
O 3.850731641 3.37618019404 8.655399529710001
O 1.0703660432 6.44839273216 3.74388837629
O 1.0704750918800001 3.38283730156 1.18315527409
O 8.66172858362 1.06932448053 8.29416622735
O 1.18133926206 5.98296174357 6.457795946950001
O 6.094138452339999 8.76432903103 3.38780721145
O 8.654082426979999 8.762783144870001 6.45403713925
O 8.29528927847 8.660759878590001 1.0743308416900001
O 6.456450842590001 1.17844580407 5.98504978761
O 3.3864483348099994 6.090217953930001 8.76716299639
O 6.45310026913 8.64997476341 8.767262899310001
O 1.07331503108 8.291530547759999 8.66368187509
O 5.985783849 6.455579165960001 1.18212308029
O 8.7661494468 3.3833666278399996 6.0936342337100005
O 8.76604039812 6.448922058440001 8.65436733591
