80

Ga 1.6372882898799999 7.402354802970001 6.476477891789999
Ga 6.70456851988 7.380995227970001 6.456600661789999
In 3.4988689805999997 1.2837085738900003 1.81996785623
Ga 8.5661492106 1.2623489988900003 1.8000906262299998
Ga 0.9725816413599999 3.0504628252700003 1.82686173331
Al 6.039861871359999 3.02910325027 1.8069845033099998
Ga 4.16357562912 5.6356005515900005 6.469584014709999
Ga 9.23085585912 5.6142409765900005 6.449706784709999
Al 0.9309942822099999 5.716458800595 -0.01347603185
Al 5.998274512209999 5.695099225595 -0.03335326185
Al 4.1908497877899995 2.9634411594050003 4.638143256849999
Al 9.25813001779 2.9420815844050003 4.61826602685
Ga 1.65051209487 1.3745283659450003 4.65085529649
Al 6.7177923248699996 1.3531687909450003 4.63097806649
Ga 3.50765989513 7.321014784055 9.29304675851
Al 8.57494012513 7.299655209055 9.27316952851
Al 0.88868666712 0.27284227641 9.306124031729999
Al 5.95596689712 0.25148270141 9.28624680173
Al 4.269412667039999 8.422669587210002 4.619139553609999
In 9.33669289704 8.401310012210002 4.59926232361
Ga 1.71975660484 4.60823668111 4.63571027101
Al 6.787036834839999 4.58687710611 4.615833041009999
Al 3.43834272932 4.087275182510001 9.28955331433
Ga 8.505622959319998 4.065915607510001 9.26967608433
In 3.5053918117500005 1.362549638235 7.31825545394
Al 8.57267204175 1.341190063235 7.2983782239399995
Al 1.63730448433 7.326329512825001 2.6556525634799995
Al 6.70458471433 7.304969937825001 2.6357753334799994
Ga 4.16417422165 5.698670268485 2.6485175190399994
Al 9.231454451649999 5.677310693485 2.6286402890399994
In 0.9785220744299999 2.9902088825750006 7.32539049838
Al 6.0458023044299996 2.9688493075750007 7.3055132683799995
O 4.257567662949999 5.812172262855 8.29551466928
O 9.32484789295 5.790812687855 8.275637439279999
O 0.8928301521700001 2.8800232444850002 3.6540711321
O 5.96011038217 2.8586636694850003 3.6341939021
O 3.42057348661 1.461006510705 3.6465743366199996
O 8.48785371661 1.4396469357050001 3.62669710662
O 1.7298243285100001 7.231188996635 8.303011464759999
O 6.797104558509999 7.209829421635 8.283134234759999
O 2.68349998135 0.076866731095 5.85122750568
O 7.7507802113499995 0.055507156095 5.831350275679999
O 2.4477166920099998 8.607069171925 1.17780230546
O 7.51499692201 8.585709596925 1.15792507546
O 4.963812064849999 4.406152297345 1.1751288571799998
O 10.03109229485 4.384792722345 1.15525162718
O 0.16740460851 4.277783605675001 5.853900953959999
O 5.23468483851 4.256424030675001 5.83402372396
O 0.11050758253 7.191045608745 1.11486391806
O 5.177787812529998 7.169686033744999 1.0949866880599999
O 5.020127844109999 1.492640003235 5.7650581357999995
O 10.087408074110002 1.471280428235 5.7451809058
O 2.49209331063 2.8421092334950004 5.7726755149599995
O 7.55937354063 2.8207496584950005 5.75279828496
O 2.6385421160099995 5.841576378485001 1.1072465389
O 7.705822346009999 5.820216803485001 1.0873693088999998
O 4.97896749632 7.248239528220001 5.913765232379999
O 10.046247726319999 7.22687995322 5.89388800238
O 0.1529030796 1.4359779522200002 1.2830108057
O 5.2201833096 1.4146183772200003 1.2631335757
O 2.6927311742 2.9031826145200004 1.2705097875
O 7.7600114042 2.8818230395200004 1.2506325575
O 2.4391394017199994 5.781034865920001 5.9262662505799995
O 7.50641963172 5.75967529092 5.90638902058
O 1.8669361213499998 1.4837206457650003 8.06071927955
O 6.93421635135 1.4623610707650003 8.04084204955
O 3.28149998609 7.2076301293150005 3.38562784101
O 8.348780216089999 7.1862705543150005 3.3657506110099997
O 0.7420358902899999 5.827359846415001 3.39797812961
O 5.809316120289999 5.806000271415001 3.3781008996099997
O 4.40640021715 2.8639909286650007 8.04836899095
O 9.473680447149999 2.8426313536650007 8.028491760949999
O 4.26897780016 0.00491570424 8.370678909759999
O 9.336258030160002 -0.01644387076 8.35080167976
O 0.88192860584 8.68749880776 3.70937617924
O 5.94920883584 8.66613923276 3.68949894924
O 3.3974415806000002 4.347486926140001 3.70694389832
O 8.464721810599999 4.32612735114 3.68706666832
O 1.7534648254 4.34492758586 8.37311119068
O 6.8207450554 4.32356801086 8.353233960679999
