80

Al 1.5783730683699997 7.19003009661 6.321251116609999
Al 6.49601250337 7.171180056610001 6.308092606609999
Al 3.3928471221899996 1.24734216967 1.77926526853
Al 8.31048655719 1.22849212967 1.76610675853
Al 0.9405262234299999 2.96397896657 1.78469628685
Al 5.858165658429999 2.94512892657 1.77153777685
Al 4.03069396713 5.47339329971 6.31582009829
Al 8.94833340213 5.45454325971 6.3026615882899995
Al 0.9014268783249999 5.557741432940001 -0.00609566901
Al 5.819066313325 5.538891392940001 -0.01925417901
Al 4.060358296674999 2.8775687870600004 4.52828147401
Al 8.977997731675 2.8587187470600006 4.51512296401
Al 1.5956188630950001 1.3319098122600002 4.53590664757
Al 6.513258298094999 1.3130597722600001 4.52274813757
Al 3.390113051905 7.108634027740001 9.068336467429999
Al 8.307752486905 7.089783987740001 9.055177957429999
Ga 0.8510513894400001 0.25560788316 9.07059409281
Al 5.768690824439999 0.23675784316 9.05743558281
Al 4.13463263208 8.1849254896 4.515484907569999
Ga 9.052272067080002 8.166075449600001 4.50232639757
Al 1.66165707178 4.475671391600001 4.52456527217
Al 6.5792965067799996 4.4568213516 4.51140676217
Al 3.3240269497400003 3.96486198116 9.06151372821
Al 8.24166638474 3.94601194116 9.04835521821
Al 3.3924801594450003 1.3180989031900003 7.13767308224
Al 8.310119594445 1.2992488631900003 7.12451457224
Al 1.583050444315 7.12021541469 2.5976136186999996
Al 6.500689879315 7.10136537469 2.5844551087
Ga 4.0358861009950004 5.538803312990002 2.5920916509399996
Al 8.953525535994999 5.519953272990001 2.57893314094
Ga 0.939644502765 2.8995110048900004 7.14319505
Al 5.857283937765 2.8806609648900006 7.13003654
O 4.119630845964999 5.643129507550001 8.09556594958
O 9.037270280965 5.624279467550001 8.08240743958
O 0.860976466675 2.79629433777 3.56511690108
O 5.778615901675001 2.77744429777 3.55195839108
O 3.3145842602349997 1.4177192788700002 3.55945850916
O 8.232223695235 1.3988692388700001 3.54629999916
O 1.666023052405 7.021704566450001 8.1012243415
O 6.583662487404999 7.002854526450001 8.0880658315
O 2.597112754165 0.06945956703 5.70565467118
O 7.514752189164999 0.05060952703 5.69249616118
O 2.370850679755 8.367200926930002 1.1597019198
O 7.2884901147550005 8.348350886930001 1.1465434098
O 4.814163314915 4.284131964030001 1.15586251668
O 9.731802749915 4.265281924030001 1.14270400668
O 0.153800119005 4.1525285299300005 5.7094940743
O 5.071439554004999 4.13367848993 5.6963355643
O 0.103268697055 6.98977695057 1.09403060768
O 5.020908132054999 6.97092691057 1.08087209768
O 4.864311589025 1.44679980547 5.62601306634
O 9.781951024025 1.42794976547 5.612854556339999
O 2.4104464165049997 2.7577625167700006 5.63171693298
O 7.3280858515050005 2.7389124767700004 5.61855842298
O 2.5571338695750003 5.67881423927 1.08832674104
O 7.474773304574999 5.659964199270001 1.07516823104
O 4.82208747989 7.0420555914300005 5.77681606816
O 9.73972691489 7.02320555143 5.76365755816
O 0.14630699535 1.3946991076900002 1.2520175544
O 5.06394643035 1.3758490676900001 1.2388590444
O 2.61059601575 2.8220364741900004 1.2444719616000002
O 7.52823545075 2.8031864341900006 1.2313134516000002
O 2.3577984594899997 5.614718224930002 5.78436166096
O 7.2754378944900004 5.595868184930001 5.77120315096
O 1.8014750157749997 1.4344898369800003 7.85934507055
O 6.719114450775 1.4156397969800003 7.84618656055
O 3.177839172905 7.0046513928600005 3.31090668537
O 8.095478607905 6.98580135286 3.2977481753699998
O 0.7138718762049999 5.661829460860002 3.3183954347699998
O 5.631511311205 5.6429794208600015 3.30523692477
O 4.265442312475 2.7773117689800007 7.85185632115
O 9.183081747475 2.7584617289800004 7.838697811149999
O 4.13273080603 -0.00259683199 8.1628453803
O 9.05037024103 -0.02144687199 8.1496868703
O 0.8482117609700001 8.442093947990001 3.6249862727
O 5.76585119597 8.42324390799 3.6118277627
O 3.2910096382100003 4.22380028989 3.62123781902
O 8.208649073210001 4.20495024989 3.6080793090200003
O 1.68993292879 4.215696826110001 8.16659383398
O 6.60757236379 4.196846786110001 8.15343532398
