40

Al 11.613581383770885 1.9879541037975959 2.9515982919803636
Al 8.140260466106794 1.9846400952631262 11.143233454641253
Ga 4.961833781520249 1.9422800045251623 1.7644095483272708
Al 4.784897179020249 1.9657076195251622 12.306685158327271
Ga 8.287707634856794 1.9651170827631264 2.358003779641254
Al 11.466134215020887 2.0074771162975957 11.736827966980364
Ga 9.091488350020885 0.5461529262975957 4.706088646980364
Ga 0.6735909048567936 0.5027264827631264 9.371763419641255
Al 6.580536555020885 1.9595554762975957 4.696775706980364
Al 3.1661945048567937 1.9484322627631263 9.374318999641254
Al 8.199239331247638 1.9768308905754945 7.62914172520493
Ga 11.554602518630041 1.9957633084852278 6.465690021416688
Al 4.873365480270249 1.9539938120251623 7.035547353327271
Ga 7.50227501027025 0.5249728520251622 0.0166765533272708
Al 2.4987196152702493 0.4926696220251622 0.0048080333272708
Al 9.99487861027025 1.9706786320251624 0.0192321333272708
O 7.4758930879476395 0.5902316975754945 3.5541397256049287
O 2.2884522391300397 0.5730120446852276 10.52344204661669
O 11.64425039723004 1.9838933168852277 1.124270379016689
O 8.109591452647638 1.9887008821754946 12.97056136760493
O 2.473071620747639 0.4435641343754945 3.5425415000049285
O 7.29274156193004 0.4909509414852276 10.535580861016689
O 9.86879254394764 1.9781092463754946 3.5565930824049286
O 9.885049305930039 1.9944849526852275 10.538238664216689
O 4.931164820272321 1.9463408200392776 3.5917373207783827
O 4.815566239972321 1.9616468618392775 10.479357385978382
O 4.1143149770476395 0.4485909085754946 1.1567569548049288
O 5.65149820563004 0.4859241672852275 12.921365406216688
O 9.117136444247638 0.5952584717754945 1.1683551804049288
O 10.65431967283004 0.6325917304852275 12.932963631816689
O 6.706622721047639 1.9521249197754946 1.1594147580049288
O 13.04721912883004 2.0204692792852277 12.935416988616689
O 4.061550985572322 0.5791084554392778 8.231683158778383
O 5.7027943418723215 0.5841352296392779 5.845898613578382
O 8.229908344706793 1.9727701036631262 5.801813812241255
O 11.523933505170886 1.9998240953975959 8.293017934380364
O 9.065840308372321 0.4970473522392778 8.243821973178383
O 0.6999728746723213 0.4374676664392778 5.834300387978383
O 6.454450441572321 1.9669860042392777 8.234136515578383
O 3.2922806186723212 1.9410016776392776 5.8369581911783825
