80

Al 7.034302959999999 2.343932655 7.009211882500001
Al 2.3426631749999998 7.015303944999999 7.028379457500001
Ga 7.013214944999999 7.03334415 2.3354418225
In 7.024363319999999 7.02539175 7.0170142125
Al 2.3315148 7.023256344999999 2.3468070675000003
Al 7.023154584999999 2.3518850550000003 2.3276394925000004
Al 2.352602815 2.33384485 7.0205771275
Al 2.34145444 2.3417972500000004 2.3390047375000003
Al 7.024434848019999 4.370299184040001 4.67179629406
Al 2.32164668802 9.04962287404 0.00939147906
In 7.011934681979999 5.0149300209600005 -0.00871497906
In 4.677180970499999 7.0248648107000005 4.363563717480001
In 0.0165688405 2.3253655107 9.048699022480001
In -0.0030029955 7.0136954793 5.011622807520001
In 4.370127457640001 4.67893232926 7.019568506660001
Al 9.050618867639999 0.01551343926 2.3188285416600003
Al 5.01677831736 -0.00115482426 7.01022050334
Al 2.34138291198 4.99688981596 4.68422265594
Al 7.0218743219799995 0.33347092596 -0.01651730906
Al 2.3315863280199998 4.3681637790400005 0.00158914906
Al 4.688636789499999 2.3423241893 4.99245523252
Ga -0.0141513705 7.0216478793 0.33005041752
Al 0.0054204655 2.3333179107 4.367126632480001
Ga 4.99569030236 4.6882566707399995 2.33645044334
In 0.33507817236 -0.01124262926 7.021585748340001
Al 4.36891872264 0.00542563426 2.33019378666
Al 2.3513225519799996 0.31543072096 4.676420325940001
Al 4.677488414499999 2.3502765893 0.31088284252
Al 0.31399015736 4.67816886574 2.3478156883400003
Ga 7.01449520802 9.05175827904 4.6795986240600005
In 4.6883293455 7.0169124107 9.045136107480001
Al 9.051827602639998 4.68902013426 7.00820326166
O 5.81216204932 3.66297634169 6.134231493940001
O 3.5591981287200003 8.33660318789 7.90776036018
O 8.23116406668 5.71729056571 1.45015099242
O 5.81202015528 5.70110240471 7.897904528460001
O 6.13878346589 5.81202570116 3.6557532967400004
O 7.91502212261 3.56076595024 8.32930723622
O 1.4567753995900001 8.232829379159998 5.712341315380001
O 7.9039634119099995 5.81235146944 5.692645526660001
O 3.66187269071 6.1401020201500005 5.806498798970001
O 8.33448431107 7.91423559687 3.5509124828500003
O 5.718830748929999 1.45890596013 8.22815886495
O 5.699356649289999 7.90472892285 5.804477228230001
O 3.55365571068 5.7042126583099995 3.22178745606
O 5.806619631279999 1.03058581211 1.4482585898200002
O 1.13465369332 3.64989843429 7.90586795758
O 3.55379760472 3.6660865952900004 1.4581144215400001
O 3.2270342941099996 3.55516329884 5.700265653260001
O 1.45079563739 5.80642304976 1.0267117137800001
O 7.909042360409999 1.1343596208400002 3.6436776346200004
O 1.46185434809 3.5548375305600004 3.6633734233400004
O 5.703945069289999 3.22708697985 3.5495201510300003
O 1.03133344893 1.4529534031300002 5.805106467150001
O 3.64698701107 7.908283039870001 1.12786008505
O 3.66646111071 1.46246007715 3.5515417217700005
O 1.1093738893199998 8.342300031690002 1.47182667894
O 8.23968953872 3.6731842978900002 3.20702039518
O 3.5705519366800003 1.0177912657100001 6.13528629742
O 1.1291112752799999 1.0175079047100002 3.21989505346
O 1.4781713358900002 1.1125264011600002 8.340888601740001
O 3.21223396261 8.240089640239999 3.6669024212200005
O 6.13726680959 3.5694104891600005 1.01160135038
O 3.2210545319099997 1.1287569694400001 1.0146360516600001
O 8.34236410071 1.47668313015 1.10575883397
O 3.6738721810699997 3.21473629687 8.236047787850001
O 1.01604258893 6.13822965013 3.5657540499500002
O 1.01644776929 3.2211344228499996 1.12646775323
O 8.25644387068 1.02488896831 7.884192271060001
O 1.12612822128 5.69400470211 6.14899855482
O 5.795265823319999 8.349397734290001 3.22073265258
O 8.236706484719999 8.34968109529 6.136123896540001
O 7.887646424109999 8.25466259884 1.01513034826
O 6.15358379739 1.12709935976 5.6891165287800005
O 3.22855095041 5.797778510840001 8.344417599620002
O 6.1447632280899995 8.23843203056 8.341382898340001
O 1.0234536592899999 7.890505869850001 8.25026011603
O 5.691945578929999 6.15245270313 1.1199711621500001
O 8.34977517107 3.2289593498699998 5.79026490005
O 8.34936999071 6.14605457715 8.22955119677
