40

In -0.9992137137499999 -0.05403306125 12.8901513475
Ga -0.14274481625 -0.00771900875 1.8414501925
In 2.4486785711690993 -0.0997054144968026 11.459694149650892
Ga 6.467550198830901 -0.1145017355031974 2.663436470349107
In 5.753826117580901 -0.1530967792531974 11.870687432849108
Al 3.162402652419099 -0.0611103707468026 2.2524431871508925
Ga 5.02909365 -0.07622754 -0.30423546
Ga 3.834699672580901 1.4863153357468026 4.665483902849107
In 5.1304113274190986 1.4403221342531976 9.474605737150892
Al 10.159504977419099 1.3640945942531975 9.170370277150893
Ga 8.8637933225809 1.4100877957468025 4.3612484428491065
In 1.2957117325809007 -0.0459932042531974 4.809122122849107
Al 7.6205170374190985 -0.1682139457468026 9.314008497150892
In 2.7341681922495136 -0.0842673976143233 7.776793911966909
Ga 6.1820605777504865 -0.1299397523856767 6.346336708033092
Ga -0.570979265 -0.030876035 7.36580077
O 9.906617068130902 1.4108623635968027 12.876134467749107
O 9.1186365210691 1.4889538112031975 0.6561626130508927
O 4.0875875818691 1.4395475664031976 0.9597197122508928
O 4.875568128930901 1.3614561187968028 13.179691566949106
O -0.85075910485 -0.04600529215 10.9750431473
O -0.29119942515 -0.01574677785 3.7565583927
O 7.266069610530901 -0.1827385180031974 13.025518216549107
O 1.6501591594690994 -0.0314686319968026 1.0976124034508927
O 2.3002239508495137 -0.1077331842143233 13.374802497166908
O 6.616004819150486 -0.1064739657856767 0.7483281228330919
O 6.679011058450486 1.3475611585143232 10.577963810633092
O 2.284144652349514 1.4534425266856768 3.5614474685669077
O 7.315193591549514 1.5028487714856769 3.257890369366908
O 11.710059997650488 1.3969674033143233 10.274406711433091
O 4.241582636050486 -0.1234550398856767 10.715856501833091
O 4.674646133949514 -0.0907521101143233 3.407274118166908
O 3.5818116855500004 1.53308310785 8.3712478049
O 5.38525460365 1.51918814695 5.769520195899999
O 10.412392964450001 1.31732682215 5.4646063751
O 8.608950046350001 1.33122178305 8.0663339841
O 2.882622812569099 -0.0762396278968026 5.861685564450893
O 6.0336059574309004 -0.1379675221031974 8.261445055549107
O 0.9412642279500001 -0.06051777375 8.5206315537
O 7.97496454205 -0.15368937625 5.6024990663
