80

In -0.03076736 -0.05014128 6.09452697
In -0.09230208 -0.15042384 18.28358091
In 4.859871505 2.884332 6.14176607
In 4.798336785 2.78404944 18.33082001
In 3.261483665 0.005388245 6.1112124
In 3.199948945 -0.094894315 18.30026634
In 1.56762048 2.828802475 6.12508064
Ga 1.50608576 2.7285199149999997 18.31413458
Al 0.0 0.0 0.0
Al -0.06153472 -0.10028256 12.18905394
Al 4.890638865 2.93447328 0.0472391
Al 4.829104145 2.83419072 12.236293040000001
In 3.292251025 0.055529525 0.01668543
In 3.230716305 -0.044753035 12.205739370000002
Ga 1.59838784 2.878943755 0.03055367
Al 1.53685312 2.7786611949999998 12.21960761
In -0.0472056124885001 1.8755252764005 3.062069307603
In -0.1087403324885001 1.7752427164005 15.251123247603001
Ga -1.7410687974885006 4.6989395064005 3.0759375476030004
In -1.8026035174885007 4.5986569464005 15.264991487603002
Ga 3.2450454125115 1.9310548014004998 3.078754737603
Al 3.1835106925114998 1.8307722414004999 15.267808677603002
Ga 1.551182227511499 4.7544690314005 3.0926229776030003
In 1.489647507511499 4.6541864714005 15.281676917603
In 1.5840587324884996 0.9031359185994999 9.157538302397
Al 1.5225240124884996 0.8028533585994999 21.346592242397
Ga -0.1098044525115 3.7265501485995 9.171406542397001
Al -0.1713391725115 3.6262675885994997 21.360460482397002
Al 4.8763097574885 0.9586654435995 9.174223732397001
Al 4.8147750374885 0.8583828835995 21.363277672397
Al 3.1824465724885007 3.7820796735994997 9.188091972397
Al 3.1209118524885007 3.6817971135994996 21.377145912397
O -0.0572911530965001 1.8590889648164999 5.059855248369
O -0.1188258730965001 1.7588064048165 17.248909188369
O -1.7511543380965007 4.6825031948165 5.073723488369001
O -1.8126890580965007 4.5822206348165 17.262777428369
O 3.2349598719034995 1.9146184898164997 5.076540678369001
O 3.1734251519034995 1.8143359298164998 17.265594618369
O 1.541096686903499 4.7380327198165 5.0904089183690004
O 1.479561966903499 4.6377501598165 17.279462858369
O 1.5941442730964996 0.9195722301834999 7.159752361631
O 1.5326095530964996 0.8192896701834999 19.348806301631
O -0.0997189119035 3.7429864601835 7.173620601631
O -0.1612536319035 3.6427039001834998 19.362674541631
O 4.8863952980965 0.9751017551835 7.176437791631
O 4.824860578096501 0.8748191951834999 19.365491731631003
O 3.1925321130965005 3.7985159851834998 7.190306031631
O 3.1309973930965005 3.6982334251834996 19.379359971631
O 1.5739731918804996 0.8866996070154999 11.155324243163001
O 1.5124384718804997 0.7864170470154999 23.344378183163002
O -0.1198899931195 3.7101138370155 11.169192483163002
O -0.1814247131195 3.6098312770155 23.358246423163
O 4.8662242168805 0.9422291320155 11.172009673163002
O 4.8046894968805 0.8419465720154999 23.361063613163
O 3.1723610318805004 3.7656433620154997 11.185877913163
O 3.1108263118805004 3.6653608020155 23.374931853163
O -0.0371200718805001 1.8919615879845 1.064283366837
O -0.0986547918805001 1.7916790279844999 13.253337306837002
O -1.7309832568805006 4.7153758179845005 1.078151606837
O -1.7925179768805006 4.6150932579845 13.267205546837001
O 3.2551309531194996 1.9474911129844998 1.080968796837
O 3.1935962331194996 1.8472085529844997 13.270022736837001
O 1.561267768119499 4.7709053429845 1.094837036837
O 1.499733048119499 4.6706227829845 13.283890976837002
O -0.01538368 -0.02507064 3.047263485
O -0.0769184 -0.1253532 15.236317425000001
O 4.875255184999999 2.90940264 3.0945025850000003
O 4.813720464999999 2.80912008 15.283556525000002
O 3.2768673450000003 0.030458885 3.063948915
O 3.2153326250000003 -0.069823675 15.253002855000002
O 1.58300416 2.853873115 3.0778171550000004
O 1.52146944 2.7535905549999997 15.266871095
O -0.04615104 -0.07521192 9.141790455
O -0.10768576 -0.17549448 21.330844395
O 4.844487825 2.85926136 9.189029555000001
O 4.782953105 2.7589788 21.378083495000002
O 3.2460999850000003 -0.019682395 9.158475885000001
O 3.1845652650000003 -0.119964955 21.347529825000002
O 1.5522368 2.803731835 9.172344125
O 1.49070208 2.7034492749999997 21.361398065000003
