40

In 0.9407137956399999 5.83169696826 -0.01798851655
Al 4.28126408936 3.03402787674 4.72364664655
In 1.6856693788 1.40843599938 4.7378026558699995
In 3.5363085062 7.457288845619999 -0.03214452587
Al 3.58327610724 1.4018882805600001 7.4556565601399996
Al 1.6599671173800001 7.476815502299999 2.7004310256599995
Al 4.248381574639999 5.82203222736 2.6943486864399997
In 0.99486164998 3.0566715555 7.46173889936
Al 1.65975975046 7.55704758144 6.593481202789999
In 3.57681490076 1.31758615122 1.85341247701
Al 0.9887109409399999 3.1142234868 1.85914568455
Al 4.247863710280001 5.760410245860001 6.587747995249999
Al 0.90851282571 0.2866399227899999 9.481964182079999
Al 4.350438594029999 8.60165108943 4.70022460452
Al 1.7498759244300002 4.706394241830001 4.71996672072
In 3.5090754953100003 4.18189677039 9.462222065879999
O 4.3436419832199995 5.941964840220001 8.44808904002
O 0.9074553389600002 2.9415325573200004 3.72104914618
O 3.49633554238 1.49953037334 3.71444310944
O 1.7547617798 7.3839670241999995 8.45469507676
O 2.74510280358 0.08799916242 5.96183871798
O 2.48643336996 8.7835594212 1.19366401062
O 5.069103624579999 4.50447602442 1.1940406074799998
O 0.16243254896 4.3670825592 5.961462121119999
O 5.078735109649999 7.406296086389999 6.020208440769999
O 0.15346792123 1.4656695022500001 1.30621367843
O 2.74879094653 2.9671390765500005 1.29236315933
O 2.48341208435 5.9048265120900005 6.034058959869999
O 0.09829231936 7.334645842919999 1.13060815214
O 5.132651092100001 1.53655095846 5.872966229259999
O 2.5436156399599996 2.90762611212 5.8797468318399995
O 2.6873277715 5.96357068926 1.1238275495599999
O 1.9068236036599997 1.5226439280000001 8.212090469709999
O 3.3422731465 7.359632454479999 3.4442895446899997
O 0.7471441821000001 5.94682166808 3.4579218564899996
O 4.50195256806 2.9354547144 8.19845815791
O 4.367226384369999 0.01963587075 8.52899196563
O 0.88438960463 8.864178086249998 3.77308352437
O 3.4667493618100003 4.44324062883 3.77380925291
O 1.78486662719 4.44057332817 8.52826623709
