80

Ga 1.5936305033 7.23322315738 6.3522031555
Al 6.5404721533 7.211986077380001 6.3369594205
Al 3.4143027693399994 1.253559007 1.7869389592400002
Al 8.361144419339999 1.232321927 1.7716952242400001
Ga 0.9482032686999999 2.9814520953000003 1.7930237986400002
Al 5.8950449187 2.9602150153 1.7777800636400003
Al 4.0597300039399995 5.50533006908 6.3461183161
Al 9.006571653939998 5.4840929890800005 6.3308745811
Al 0.9093333257899999 5.5900928833800005 -0.007735383465
Al 5.856174975789999 5.568855803380001 -0.022979118465
Al 4.087649284209999 2.89375407162 4.549756703465
Ga 9.034490934209998 2.8725169916200004 4.534512968465
Al 1.6075595300899999 1.3401225280200002 4.558778636165
Al 6.554401180089999 1.31888544802 4.543534901165001
Ga 3.41721663991 7.1511741969800005 9.112990893835
Al 8.364058289909998 7.129937116980001 9.097747158835
Ga 0.8599224890399999 0.25891526529 9.11782924281
Al 5.806764139039999 0.23767818529 9.102585507810002
Al 4.16479809384 8.232366560170002 4.535680790770001
Al 9.11163974384 8.211129480170001 4.52043705577
Al 1.6754298296399999 4.5023870741700005 4.54665064027
Ga 6.62227147964 4.48114999417 4.53140690527
Al 3.34929075324 3.98889475129 9.106859393310001
Al 8.29613240324 3.96765767129 9.091615658310001
Al 3.4161503982299997 1.32602895574 7.173475261945001
Ga 8.362992048230002 1.30479187574 7.158231526945001
Al 1.5967857152099998 7.16209416724 2.609021530595
Al 6.543627365209999 7.140857087240001 2.593777795595
Ga 4.063465122729999 5.570222825340001 2.602814946395
Al 9.010306772729997 5.548985745340001 2.587571211395
Al 0.94947099071 2.9179002976400006 7.179681846145001
Al 5.89631264071 2.8966632176400005 7.164438111145001
O 4.14999873335 5.676456376640001 8.135137640765
O 9.09684038335 5.65521929664 8.119893905765
O 0.86882961481 2.8132460975800004 3.5828657722950004
O 5.815671264809999 2.7920090175800003 3.5676220372950005
O 3.33637888265 1.4254073752800003 3.5764765708950006
O 8.283220532649999 1.4041702952800001 3.5612328358950003
O 1.6824494655099997 7.064295098940001 8.141526842165002
O 6.62929111551 7.04305801894 8.126283107165001
O 2.6149002131100003 0.07004867068 5.734540181765
O 7.561741863109999 0.04881159068 5.719296446765
O 2.3892531353699997 8.41572032498 1.162956176415
O 7.336094785369999 8.39448324498 1.1477124414150002
O 4.84520426561 4.30744667468 1.159001871015
O 9.79204591561 4.286209594680001 1.1437581360150002
O 0.15894908287 4.1783223209800004 5.738494487165
O 5.105790732869999 4.15708524098 5.723250752165001
O 0.10753958237 7.03120688302 1.098178193035
O 5.05438123237 7.009969803020001 1.082934458035
O 4.89616906915 1.45444291632 5.653242193785
O 9.84301071915 1.43320583632 5.637998458785001
O 2.4283298478699993 2.7742707654200007 5.659692267585
O 7.375171497869999 2.7530336854200006 5.644448532585001
O 2.5753788036500005 5.711379033920001 1.0917281192350001
O 7.522220453649999 5.690141953920001 1.076484384235
O 4.856326265379999 7.0827454017500004 5.8036088908100005
O 9.80316791538 7.06150832175 5.78836515581
O 0.14832736718 1.4031576897700002 1.2582229351500003
O 5.09516901718 1.38192060977 1.2429792001500002
O 2.62790970278 2.837770205270001 1.2493075291500002
O 7.57475135278 2.8165331252700008 1.2340637941500001
O 2.37674392978 5.64813288625 5.81252429681
O 7.32358557978 5.62689580625 5.797280561810001
O 1.8160405692099997 1.4440159704400002 7.899565423025001
O 6.762882219209999 1.4227788904400003 7.884321688025
O 3.20128692671 7.045284216200001 3.325431586695
O 8.14812857671 7.0240471362 3.3101878516950003
O 0.72206703291 5.695685292200001 3.334270902195
O 5.66890868291 5.6744482122000015 3.3190271671950002
O 4.295260463009999 2.7936148944400006 7.890726107525
O 9.242102113009999 2.7723778144400004 7.875482372525001
O 4.1606100675799995 -0.00254804673 8.20402201749
O 9.10745171758 -0.02378512673 8.18877828249
O 0.85860739042 8.492354817730002 3.6417978705100005
O 5.805449040419999 8.471117737730001 3.6265541355100006
O 3.31397861378 4.248059421030001 3.6379653099100007
O 8.26082026378 4.226822341030001 3.6227215749100004
O 1.70523884422 4.24174734997 8.20785457809
O 6.65208049422 4.22051026997 8.192610843090002
