40

Ga 1.6451198461368344 0.0107452406659189 0.584964454051098
Al 8.070930533863164 0.0640304293340811 13.380364945948902
Al 9.052374392386835 1.476259781915919 2.344445216551098
Ga 4.091236867386835 1.445741431915919 2.332142486551098
Al 4.88380327375 0.03567046375 5.2400742075
Al 1.5935636786368343 0.0141799831659189 4.070145439051098
Al -0.103112335 0.006869485 6.97036197
Al 8.199820952613164 0.0554435730840811 4.667412483448902
Al 2.36878277 1.440148305 6.97494951
Al 7.329920295 1.4706666549999998 6.98725224
Ga 8.122486701363165 0.0605956868340811 9.895183960948902
Al 4.83224710625 0.03910520625 8.7252551925
Al 3.135571092613165 0.0317947080840811 11.625471723448902
Al 1.5162294273868344 0.0193320969159189 9.297916916551099
Al 5.6074661976131654 1.4650735280840812 11.630059263448901
Al 10.568603722613163 1.4955918780840811 11.642361993448901
O 3.35604442005 0.02192029045 1.1933273913
O 1.4657043832368344 0.0226981445659189 12.713394281851098
O 5.72906372085 1.39786795765 1.1977314297000001
O 10.689507353249999 1.54182787925 1.2099090537000001
O 8.250345996763164 0.0520775254340811 1.251935118148902
O 6.36000595995 0.05285537955 12.7720020087
O 8.93077686915 1.54346535235 12.776773050300001
O 3.9703332367500006 1.39950543075 12.7645954263
O 6.594727847663165 0.0468455135340811 5.848437144748902
O 4.91061248085 0.03388439765 3.4277800952999997
O 8.967747148463165 1.422793180734081 5.852841183148902
O 4.005915730863165 1.505716402334081 5.840413347148902
O 1.5667544715368344 0.0159660492659189 5.882439551251098
O 9.804914057563165 0.0640416326340811 3.486387822148902
O 12.375684966763165 1.554651605434081 3.4911588637489017
O 7.415241334363166 1.410691683834081 3.4789812397489017
O -0.0888636775631654 0.0107340373659189 10.478941577851097
O 8.149295908463165 0.0588096207340811 8.082889848748902
O 2.2841556232368347 1.386681704565919 10.483345616251098
O 7.244599255636835 1.530641626165919 10.495523240251098
O 4.80543789915 0.04089127235 10.5375493047
O 3.1213225323368348 0.0279301564659189 8.116892255251098
O 5.6920934415368345 1.5185401292659189 8.121663296851098
O 10.653924859136835 1.4356169076659187 8.134091132851099
