80

In 1.71486061149 7.75857401661 6.74096997501
Ga 7.041248831490001 7.74520160161 6.71449057001
Al 3.6774728459099997 1.35239834487 1.8921966420500003
In 9.00386106591 1.33902592987 1.8657172370500001
Ga 1.01884709721 3.19633906107 1.8992292562300002
In 6.34523531721 3.18296664607 1.8727498512300003
In 4.37348636019 5.91463330041 6.73393736083
In 9.69987458019 5.90126088541 6.70745795583
Ga 0.9683045890799999 5.982326470015001 -0.024958942775
In 6.294692809080001 5.968954055015001 -0.051438347775
In 4.404932830919999 3.1158539249850006 4.828139622775001
Ga 9.73132105092 3.1024815099850005 4.801660217775
Al 1.73757744132 1.4490013720850001 4.847033306715001
Al 7.063965661319999 1.435628957085 4.820553901715
In 3.68412707868 7.681645942915 9.676923863285001
In 9.01051529868 7.668273527915 9.650444458285001
In 0.94393032336 0.30304746786 9.70568532867
Al 6.27031854336 0.2896750528599999 9.67920592367
In 4.47767726244 8.8275349133 4.7988302883500005
In 9.804065482440002 8.8141624983 4.772350883350001
Al 1.8045322664400003 4.8322806068 4.8255903812500005
Al 7.13092048644 4.8189081918 4.799110976250001
In 3.61707531936 4.29830177436 9.67892523577
Al 8.943463539360001 4.2849293593599995 9.65244583077
Al 3.69027019545 1.444356499715 7.627288384085
In 9.016658415450001 1.430984084715 7.600808979085
Al 1.71078733995 7.672459907365 2.7556180011749998
Ga 7.03717555995 7.659087492365 2.729138596175
Ga 4.36977493905 5.974044300765001 2.748093736435
In 9.69616315905 5.9606718857650005 2.721614331435
Al 1.03128259635 3.1427721063150003 7.634812648825001
In 6.3576708163500015 3.1293996913150006 7.608333243825001
O 4.47398682453 6.102675872675 8.638144839785001
O 9.80037504453 6.089303457675 8.611665434785001
O 0.9373457360700002 3.0210235214450005 3.8055661613550003
O 6.263733956069999 3.0076511064450004 3.7790867563550004
O 3.5968761107700007 1.5408955792450003 3.797304420775
O 8.923264330770001 1.5275231642450002 3.7708250157750003
O 1.8144564498300002 7.5828038148750005 8.646406580365001
O 7.14084466983 7.5694313998750005 8.619927175365001
O 2.8270431622500003 0.095259048955 6.100190171145
O 8.15343138225 0.081886633955 6.073710766145
O 2.5586987695499994 9.011297811405 1.210950843275
O 7.88508698955 8.997925396405002 1.1844714382750001
O 5.21099213625 4.620667677205 1.2125221138950002
O 10.53738035625 4.607295262205 1.186042708895
O 0.17474979555 4.485889183155001 6.098618900525
O 5.50113801555 4.472516768155001 6.0721394955250005
O 0.10446348495 7.525557013545 1.1504045758950001
O 5.430851704949999 7.512184598545 1.123925170895
O 5.28050297325 1.580480376095 6.005204014685
O 10.60689119325 1.5671079610949998 5.978724609685
O 2.62079167335 2.987845763495 6.013711580545
O 7.947179893350001 2.974473348495 5.987232175545
O 2.7641747848500007 6.118191626145 1.141897010035
O 8.090563004849999 6.104819211145 1.115417605035
O 5.227055427390001 7.602307564829999 6.15045940536
O 10.553443647389999 7.588935149829999 6.1239800003600005
O 0.15955891221 1.5048337000900003 1.33565558588
O 5.485947132210001 1.4914612850900002 1.3091761808800002
O 2.82659768271 3.04435178209 1.31719209618
O 8.15298590271 3.0309793670900005 1.2907126911800002
O 2.56001665689 6.062789482830001 6.168922895060001
O 7.88640487689 6.049417067830001 6.142443490060001
O 1.96864331652 1.569493200405 8.403409587935
O 7.295031536520001 1.556120785405 8.376930182935
O 3.44007202068 7.552452980035 3.5153794827450002
O 8.76646024068 7.539080565035 3.488900077745
O 0.77325940668 6.1038880915350004 3.533535690845
O 6.0996476266799995 6.090515676535 3.507056285845
O 4.63545593052 3.0180580889050006 8.385253379835
O 9.961844150520001 3.0046856739050005 8.358773974835
O 4.49650355757 0.02713620841 8.72653133026
O 9.82289177757 0.01376379341 8.70005192526
O 0.9155075424300001 9.097017722590001 3.8532705417400006
O 6.2418957624299996 9.08364530759 3.8267911367400003
O 3.5674390587300007 4.560862478790001 3.8553334629200005
O 8.893827278729999 4.547490063790001 3.8288540579200006
O 1.8445720412700002 4.56329145221 8.72446840908
O 7.170960261270001 4.54991903721 8.69798900408
