80

Al 1.6296595758899999 7.3807582691 6.46100187041
Ga 6.6823386958899995 7.3605922141 6.44216725541
Ga 3.4881411560499997 1.2806001542399998 1.8161310113700002
In 8.540820276049999 1.2604340992399998 1.7972963963700002
In 0.96874312001 3.04172625992 1.82269797767
In 6.021422240009999 3.0215602049199997 1.8038633626700002
Al 4.149057611929999 5.61963216342 6.45443490411
Ga 9.20173673193 5.599466108420001 6.43560028911
Al 0.92704106132 5.700283075375001 -0.012656170885
Al 5.979720181319999 5.680117020375001 -0.031490785885
Al 4.17720429368 2.9553485146250007 4.627405640885001
Al 9.22988341368 2.9351824596250005 4.608571025885
Al 1.64454176136 1.3704220055650003 4.6394192987850005
Al 6.697220881359999 1.3502559505650003 4.620584683785
Ga 3.49410810364 7.299744694435 9.270719541215001
Al 8.546787223639999 7.279578639435 9.251884926215
Al 0.8842511170499999 0.27118858035 9.28250644731
Al 5.936930237049999 0.25102252535 9.263671832310001
Al 4.25432993893 8.398949049430001 4.609041613950001
Al 9.307009058930001 8.37878299443 4.59020699895
In 1.7128702277299999 4.594878837330001 4.62466758545
Al 6.7655493477299995 4.574712782330002 4.60583297045
Al 3.4257108282499997 4.07525879245 9.26688047581
Al 8.478389948249998 4.05509273745 9.24804586081
Ga 3.4935566914300002 1.3585846080250001 7.300354358715
Al 8.54623581143 1.3384185530250001 7.281519743715001
Al 1.63043685231 7.305390135115001 2.649948609665
Ga 6.683115972309999 7.285224080115001 2.6311139946649997
Ga 4.150384712029999 5.6829605108750005 2.643155873765
Ga 9.203063832029999 5.662794455875001 2.6243212587649998
Ga 0.9736088317099999 2.9810142322650006 7.307147094615001
Al 6.026287951709999 2.960848177265001 7.2883124796150005
O 4.2423837205299995 5.795508823845001 8.275728820175
O 9.295062840529999 5.775342768845001 8.256894205175001
O 0.8889035793300001 2.8715473626150008 3.6451966946450005
O 5.9415826993300005 2.8513813076150005 3.6263620796450002
O 3.40967617457 1.4571624605350002 3.6380653043450004
O 8.46235529457 1.4369964055350002 3.619230689345
O 1.72161112529 7.209893725925 8.282860210475
O 6.77429024529 7.189727670925 8.264025595475001
O 2.6746062506099997 0.076572176125 5.836784745455001
O 7.72728537061 0.056406121125 5.817950130455
O 2.4385154679699994 8.582809472255 1.1761751820050002
O 7.49119458797 8.562643417255 1.157340567005
O 4.94829158961 4.394494941375 1.1735591837050001
O 10.00097070961 4.374328886375 1.154724568705
O 0.16483012897 4.264886707005001 5.839400743755
O 5.217509248969999 4.244720652005001 5.820566128755001
O 0.10837214397 7.170330641915001 1.1127901283450001
O 5.161051263969999 7.150164586915001 1.093955513345
O 5.004199102449999 1.488818444705 5.7514435691950005
O 10.056878222449999 1.468652389705 5.732608954195
O 2.48315159537 2.8338551060650006 5.758687844295
O 7.53583071537 2.813689051065001 5.739853229295
O 2.6294196510499996 5.825293980555001 1.105545853245
O 7.682098771049999 5.805127925555001 1.086711238245
O 4.961848105319999 7.22789461987 5.900368821280001
O 10.01452722532 7.20772856487 5.8815342062800005
O 0.15189289444 1.4317486604900003 1.2799081148400002
O 5.204572014439999 1.4115826054900003 1.2610734998400002
O 2.68407433104 2.8953157482900003 1.2680920053400002
O 7.736753451039999 2.8751496932900005 1.2492573903400002
O 2.42966666872 5.76432753207 5.9121849307800005
O 7.482345788719999 5.7441614770700005 5.89335031578
O 1.8596533445799999 1.4789575747050003 8.040609096405001
O 6.9123324645799995 1.4587915197050003 8.021774481405
O 3.2697761117399997 7.187313715815001 3.378365392435
O 8.32245523174 7.167147660815 3.3595307774350003
O 0.7379383149400001 5.810431928915001 3.3900403959350003
O 5.79061743494 5.7902658739150015 3.371205780935
O 4.39149114138 2.8558393616050006 8.028934092905
O 9.444170261379998 2.835673306605001 8.010099477905001
O 4.2550381673 0.00489130711 8.35009058426
O 9.3077172873 -0.01527474789 8.33125596926
O 0.8767307957 8.66236837089 3.7009703817400004
O 5.929409915699999 8.64220231589 3.6821357667400005
O 3.3859570936599996 4.3353573585700005 3.6985801530400004
O 8.438636213659999 4.31519130357 3.6797455380400006
O 1.74581186934 4.331902319430001 8.352480812960001
O 6.79849098934 4.311736264430001 8.33364619796
