80

Al 7.1928419525 2.395185345 7.1750478125
Al 2.3961645425 7.17714949 7.190253312499999
Al 7.1775420274999995 7.191599274999999 2.3925165775
Al 7.1856636525 7.184543189999999 7.1819218725
In 2.3880429175000004 7.184205574999999 2.4008480175
In 7.1847203275 2.4022414299999997 2.3856425175
Al 2.4033428425000003 2.3877916449999996 7.1833792525
Al 2.3952212175000005 2.3948477299999995 2.3939739575
Ga 7.1856801144 4.467715976539999 4.78331475892
In 2.3808810794000004 9.25673620654 0.00911496392
Ga 7.1765822406 5.12612472846 -0.00515566392
In 4.7863010145 7.184854196279999 4.465705384940001
In 0.0121018295 2.3810465662799998 9.25656805994
Ga -0.0020935545 7.17650086872 5.12539594506
In 4.468817308020001 4.7856646459 7.18321710042
In 9.257373093020002 0.0107565859 2.37860630542
In 5.127367486980001 -0.0026876559 7.17520996458
Al 2.3952047556 5.11167494346 4.79258107108
Ga 7.1837605406 0.33676688346 -0.01202972392
Al 2.3880593794 4.46737836154 0.00224090392
Ga 4.794583855500001 2.39453672372 5.11019044506
Al -0.0102151795 7.183556953719999 0.33599065006
In 0.0039802045 2.3881026512799997 4.46716276494
Ga 5.112067561980001 4.793726274099999 2.39267872958
Al 0.3378683769800001 -0.0100813559 7.18354140458
In 4.4678739830200005 0.0033628859 2.38693774542
In 2.4023830556 0.32231709846 4.7857070110799995
Ga 4.786462230500001 2.40159280872 0.32078515006
In 0.3225684519800001 4.786332574099999 2.40101016958
Al 7.178501814400001 9.257073821539999 4.79018881892
Al 4.7944226395000005 7.17779811128 9.25511067994
Ga 9.258316418020001 4.7930583459000005 7.17488566042
O 5.9440210378 3.7451884392699997 6.27874427636
O 3.6409368960000004 8.528344220309998 8.09043381848
O 8.4233092112 5.84424926869 1.48800372272
O 5.94394503 5.83069537173 8.08255775744
O 6.281272851070001 5.94298640373 3.74290792581
O 8.093691725429998 3.63981858433 8.52588105057
O 1.4915820535700002 8.422982330069999 5.84299458563
O 8.08566554493 5.94268998187 5.82795601299
O 3.7460411894200005 6.28066982064 5.94136614644
O 8.52894287862 8.092248991159998 3.6367048114
O 5.84566434638 1.49086646464 8.421350332
O 5.83156376058 8.084692023559997 5.94031828516
O 3.6368638322 5.83420248073 3.2971515536399996
O 5.939947974 1.0510466996899999 1.48546201152
O 1.1575756588000001 3.73514165131 8.08789210728
O 3.63693984 3.74869554827 1.49333807256
O 3.2996120189300004 3.63640451627 5.8329879041899995
O 1.48719314457 5.939572335669999 1.0500147794299999
O 8.08930281643 1.1564085899299998 3.7329012443700003
O 1.49521932507 3.6367009381299997 3.7479398170100002
O 5.834843680580001 3.29872109936 3.63452968356
O 1.05194199138 1.48714192884 5.9391910186
O 3.7352205236200002 8.088524455359998 1.1545454979999998
O 3.7493211094200003 1.4946988964399999 3.63557754484
O 1.1392220028000002 8.53420866927 1.50454448136
O 8.429492681 3.75343616031 3.28582302348
O 3.6491100262000002 1.04044163869 6.27886639772
O 1.1535025950000002 1.0409999117299997 3.29460984244
O 1.5070736660700002 1.1391787737299996 8.53377060081
O 3.28889269043 8.428838814329998 3.75168125557
O 6.280137838570002 3.6480742700699995 1.03838379063
O 3.2952231099300002 1.15299452187 1.04000809799
O 8.53459697442 1.50576176064 1.13675535144
O 3.7547436936200005 3.28844136116 8.4275674864
O 1.0408653113800002 6.279886694639999 3.647150537
O 1.04112132558 3.29499656356 1.1523703701599999
O 8.441662867200002 1.04518225073 8.07135134864
O 1.151392189 5.825954759689999 6.2900728065200004
O 5.9317748438 8.53894928131 3.2970294322799996
O 8.427382275 8.53839100827 6.2812859875600005
O 8.07381120393 8.44021214627 1.04212522919
O 6.291992179570001 1.1505521056699999 5.82421457443
O 3.3007470314300003 5.93131664993 8.53751203937
O 6.285661760070001 8.426396398129999 8.53588773201
O 1.0462878955800003 8.073629159359998 8.43914047856
O 5.826141176380001 6.2909495588399995 1.1483283436
O 8.540019558620001 3.2995042253599993 5.9287452929999995
O 8.53976354442 6.284394356439999 8.42352545984
