40

Al 8.197658822478381 0.123261146623405 13.710669054384484
Ga 5.08839114 0.035872995 0.011000095
Ga 9.269325971271616 1.5294291171265952 2.3944342693655156
Ga 4.180934831271617 1.4935561221265952 2.3834341743655156
Ga 4.9776547312499995 0.06071018625 5.36887055125
Ga 1.6100020950216172 0.031275480876595 4.170899323115516
Ga -0.147648545 0.033116255 7.143827275
Ga 8.38221950372838 0.081865827873405 4.780884960634483
Ga 2.386372055 1.50367596 7.1423189449999995
Ga 7.4747631949999995 1.539548955 7.1533190399999995
Al 8.27148309497838 0.106703019123405 10.138755416884484
Ga 4.90383045875 0.07726831375 8.94078418875
Al 3.146179818728382 0.079109087873405 11.913712140634484
Al 1.4992656862716172 0.056112672126595 9.528769779365515
Ga 5.680200418728383 1.5496687928734052 11.912203810634484
Ga 10.768591558728382 1.585541787873405 11.923203905634484
O 3.4350057225499997 0.03002339995 1.22193070135
O 1.4269178992216172 0.072339637076595 13.029245144115515
O 5.86766549855 1.44176071675 1.22048270455
O 10.955242640949999 1.59384356835 1.2309221293500001
O 8.454567290778382 0.065638862923405 1.280409595884484
O 6.44647946745 0.10795510005 13.08772403865
O 9.08186089145 1.6373371932500003 13.08615537545
O 3.9942837490499996 1.4852543416500001 13.07571595065
O 6.728834086278382 0.076016232823405 5.991815566984484
O 5.01604335295 0.05209995995 3.5114754597499998
O 9.161493862278382 1.4877535496234051 5.990367570184484
O 4.0722887246783825 1.5680904112234053 5.978806804984484
O 1.5716134733216172 0.039885707176595 6.028294414615516
O 10.035604921178383 0.087715422923405 3.569954354284484
O 12.670986345178383 1.6170975161234051 3.568385691084484
O 7.583409202778382 1.465014664523405 3.557946266284484
O -0.1541197311783827 0.050263077076595 10.739700385715516
O 8.309871716678382 0.098092792823405 8.281360325384483
O 2.278540044821617 1.462000393876595 10.738252388915514
O 7.366117187221617 1.6140832454765952 10.748691813715515
O 4.86544183705 0.08587854005 10.79817928025
O 3.152651103721617 0.061962267176595 8.317839173015516
O 5.788032527721617 1.591344360376595 8.316270509815515
O 10.877237665321616 1.511007498776595 8.327831275015516
