40

Ga 3.1807057373020506 1.8437751440129884 0.6448918029806596
In -0.1126488054415114 0.0883794642759265 14.52874257738191
Ga -1.613068465197949 4.611965665262988 2.4855598092306592
Ga -0.0198162851979492 1.8542242002629885 2.5152130842306595
In 1.5727602348020508 4.613044365262989 2.5102919142306592
In 3.1513190923020504 1.8668306565129882 4.43499857548066
In 4.719857118139461 0.9671560317110851 7.611549294637431
In 3.126604938139461 3.7248974967110855 7.581896019637431
In 1.5340284181394606 0.9660773317110851 7.586817189637431
Al -0.0391821929415114 0.0307406830259265 5.0534756461319095
In -0.0832621604415114 0.0653239517759265 10.738635804881909
In -0.0739170843605394 3.735346552961085 9.452217300887432
Ga 1.4946210370584887 2.8356718730259263 12.62876802113191
In 3.0878732170584886 0.0779304080259265 12.65842129613191
In -1.6912076629415114 2.8345931730259264 12.60403591613191
In 3.107239124802051 1.9014139252629882 10.12015873423066
O 1.5188639504394612 2.8034145611610852 1.282989993887431
O -0.0106581423605386 5.450846367561085 1.254522849887431
O -1.5395316015605391 2.802379009161085 1.259247173087431
O 3.0784402127020507 1.9240083275129882 13.83446337128066
O -0.0103832808415114 0.0081462807759265 1.3391710090819098
O -1.6373114741605392 4.644223032261086 13.831337835387432
O -0.107789381360539 1.9967912258610854 13.859804979387432
O 1.421084077839461 4.645258584261086 13.855080656187432
O -1.7063721306415112 4.671930402475927 6.30020872038191
O -0.0493898634415113 1.8038792788759264 6.33104812638191
O 1.606889717358489 4.673052250475926 6.32593010958191
O -0.0292493839605394 3.7003021739610853 3.691255006687431
O 3.136038036902051 1.8788195230129883 6.40585409718066
O 4.813160784758488 0.9071912935759265 3.7969002318819096
O 3.156178517558488 3.7752424171759262 3.76606082588191
O 1.4998989367584885 0.9060694455759265 3.77117884268191
O 4.62655354710205 1.0271207147129884 11.42619835848066
O 3.097031454302051 3.6745525211129886 11.39773121448066
O 1.5681579951020506 1.0260851627129886 11.402455537680659
O -0.0679811050415114 0.0533350852759265 8.76778028318191
O -0.0891981397605394 3.747335419461085 11.42307282258743
O 1.5879247025020506 2.7757071358129886 8.81411910998066
O 3.11744679530205 0.1282753294129884 8.842586253980661
O 4.646320254502051 2.7767426878129884 8.83786193078066
