20

In 10.989014731229998 1.189658e-05 1.1816868562999998
Ga -0.0628881812300002 -3.55658e-06 4.7236365636999995
Ga 4.77511969623 1.57724870658 1.2022107213
Ga 6.150999153769999 1.57724772342 4.7031029787
Ga 9.421625230649997 1.57725200909 4.04468310137
Ga 1.50449361935 1.57724442091 1.8606305986299998
In 3.20773789565 7.2909e-07 4.06521668637
Ga 7.71838865435 7.61091e-06 1.8401067336299999
O 9.040724599149998 6.62675e-06 5.25799600355
O 1.8854019508500002 1.71325e-06 0.6473274164499999
O 2.8268295641500005 1.5772434367500001 5.27851986855
O 8.099289285849999 1.57725299325 0.62679383145
O 9.621552426649998 9.28788e-06 2.5646139290399996
O 1.3045741233499994 -9.4788e-07 3.3407094909599993
O 3.40765739165 1.57724609788 2.58513779404
O 7.51846145835 1.57725033212 3.3201759059599993
O -1.06602299478 1.57723954829 4.417991896609999
O 11.992141844779999 1.5772568817100001 1.48732180339
O 5.147872040219999 2.73829e-06 4.397468031609999
O 5.778254509779999 5.60171e-06 1.5078553883899999
