60

Al -0.00189127995 0.0025573041 1.9681328108499998
Al 5.02229038005 0.0290523941 1.9720008758499998
In -0.00841293495 0.0113755941 8.75479767585
Ga 5.01576872505 0.0378706841 8.75866574085
Al -0.01115203005 0.0150792759 11.60519691915
Al 5.01302962995 0.0415743659 11.609064984149999
In -0.00463037505 0.0062609859 4.818532054149999
Ga 5.01955128495 0.0327560759 4.822400119149999
Al 2.4982127866101003 1.4719307013918002 6.49274758956403
Al 7.5223944466101 1.4984257913918002 6.49661565456403
In 2.4916911316101 1.4807489913918002 13.27941245456403
Al 7.515872791610101 1.5072440813918002 13.283280519564029
Al 2.5019953465101 1.4668160931918002 2.55648196786403
Al 7.526177006510101 1.4933111831918002 2.56035003286403
In 2.4954736915101003 1.4756343831918002 9.34314683286403
Al 7.5196553515101 1.5021294731918002 9.34701489786403
Al -0.0258573065101 2.9148134168082 11.01350787713597
Al 4.998324353489901 2.9413085068082 11.01737594213597
In -0.0193356515101 2.9059951268082 4.22684301213597
Al 5.0048460084899 2.9324902168082 4.23071107713597
Al -0.0220747466101 2.9096988086082 7.077242255435969
Al 5.0021069133899 2.9361938986082 7.081110320435969
In -0.0155530916101 2.9008805186082 0.29057739043597
Al 5.0086285683899 2.9273756086082 0.2944454554359699
O 1.51906621548 0.01243715727 3.394504456195
O 6.54324787548 0.03893224727 3.3983725211949998
O 1.73169857345 3.0461122172099997 3.391004532655
O 6.755880233450001 3.0726073072099997 3.394872597655
O 9.27699739857 1.37166117052 3.39888455365
O 4.25281573857 1.3451660805199999 3.3950164886499996
O 0.7444394665499999 1.3355172927899999 10.178985312344999
O 5.768621126549999 1.36201238279 10.182853377345
O -1.77667769857 3.03646342948 10.17497335635
O 3.24750396143 3.06295851948 10.178841421349999
O 3.49207213452 0.03169451273 10.182693338804999
O 8.51625379452 0.05818960273 10.186561403805
O 4.0191702820401005 1.4818105545618 7.919119234909029
O 9.043351942040099 1.5083056445618 7.922987299909029
O 1.7426212900101 0.1514926845018 7.91895919636903
O 6.7668029500101 0.1779877745018 7.922827261369029
O 1.7287381451301 2.7880443878118 7.91576320236403
O 6.752919805130101 2.8145394778118002 7.9196312673640294
O 3.2575868431101003 2.7872541100818005 1.13027036105903
O 8.281768503110099 2.8137492000818005 1.13413842605903
O 3.2714699879901 0.1507024067718 1.13346635506403
O 8.2956516479901 0.1771974967718 1.13733442006403
O 0.9810378510800999 1.4569362400218 1.13011032251903
O 6.0052195110801 1.4834313300218 1.13397838751903
O 1.4951001889198996 2.9246932699782 12.43987952248097
O 6.5192818489199 2.9511883599782 12.443747587480969
O -0.7814488031101 1.5943753999182002 12.43971948394097
O 4.2427328568899005 1.6208704899182003 12.44358754894097
O -0.7953319479901 4.2309271032282 12.43652348993597
O 4.2288497120099 4.2574221932282 12.44039155493597
O 0.7335167499898996 4.2301368254982 5.65103064863097
O 5.7576984099899 4.2566319154982 5.65489871363097
O 0.7473998948699001 1.5935851221882003 5.65422664263597
O 5.7715815548699005 1.6200802121882003 5.6580947076359696
O -1.5430322420401 2.8998189554382003 5.65087061009097
O 3.4811494179599003 2.9263140454382 5.65473867509097
