40

In -0.0316082739048551 3.53647812465818 14.453469184544325
Al 1.5457530430911817 2.632319833349273 2.6053530483915357
Ga 3.046598218091182 -0.0340005716507272 2.615191998391536
Ga -1.5129527469088182 2.667117378349273 2.493071238391536
In 3.077710967063673 1.731150191992547 0.1431497808141384
Ga -0.0211882506588181 0.0013947033492728 4.380092792141536
Ga -1.5181627129363269 4.434659061992547 7.529759435814138
Ga -0.017317537936327 1.768338656992547 7.539598385814138
In 1.540543077063673 4.399861516992547 7.642041245814138
Ga 0.0137951198451449 3.53348947465818 5.067556165794325
Ga -0.0134469164048551 3.53528266465818 10.699103977044325
Al 3.032307573313673 1.734138841992547 9.529062799564137
Ga 4.537023369845144 0.8347624446581802 12.698407340794324
In 3.0361781948451445 3.50108284965818 12.688568390794325
Ga 1.4783175798451451 0.8695599896581802 12.586125530794325
In -0.0484302869088181 0.0031878933492728 10.011640603391536
O 4.5305924143136735 0.8671989043925471 1.4587125945641384
O 3.0897810463136732 3.426866493192547 1.4492672025641384
O 1.594234855913673 0.900604547592547 1.3509220569641385
O -0.0662284172588181 0.0043594441492728 13.690918506741536
O 0.0315932501951449 3.53231792385818 1.3882782624443255
O 1.552184089813673 2.599883319592547 13.845047797064138
O 2.992995457813673 0.040215730792547 13.854493189064138
O 4.488541648213673 2.5664776763925468 13.952838334664138
O 1.466676567095145 2.6695381870581802 6.383118979544325
O 0.0258651990951447 5.229205775858179 6.373673587544325
O -1.4696809913048547 2.7029438302581803 6.275328441944326
O 3.0599128367136728 1.732321742792547 3.822427684164138
O -0.0306321565588181 0.0020163425492728 6.332362700041536
O -1.439086327404855 4.397440762258181 3.7519933520443254
O 0.0017250405951451 1.8377731734581804 3.7614387440443253
O 1.4972712309951448 4.3640351190581805 3.859783889644325
O -1.5972391896588183 4.4718774157492724 11.307525517141535
O -0.0363602076588182 1.6989041945492727 11.317758025141535
O 1.583814831941182 4.4356879689492725 11.424298599541535
O -0.0040030105048551 3.5346610254581803 8.746834069144326
O 3.022863667413673 1.734760481192547 11.481332707464137
O 4.616099845841181 0.7975440909492728 8.920641409641537
O 3.0552208638411815 3.5705173121492733 8.910408901641537
O 1.4350458242411819 0.8337335377492728 8.803868327241537
