80

Al -0.089465675 -0.049002195 5.84178106
Al -0.268397025 -0.147006585 17.52534318
Al 4.28327318 2.886572215 5.9328870899999995
Al 4.10434183 2.788567825 17.61644921
Al 2.94461175 0.156407335 5.88989281
Al 2.7656804 0.058402945 17.57345493
Al 1.249195755 2.681162685 5.88477534
Al 1.0702644049999999 2.5831582949999996 17.56833746
Al 0.0 0.0 0.0
Al -0.17893135 -0.09800439 11.68356212
Al 4.372738855 2.93557441 0.09110603
Al 4.193807505 2.8375700200000002 11.77466815
Al 3.034077425 0.20540953 0.04811175
Al 2.855146075 0.10740514 11.73167387
Al 1.33866143 2.73016488 0.04299428
Ga 1.1597300799999999 2.63216049 11.7265564
Al -0.1636391340145 1.7269638151589999 2.9335148707729997
Al -0.3425704840145 1.6289594251589998 14.617076990772999
Al -1.8590551290145003 4.251719165159 2.928397400773
Al -2.0379864790145 4.153714775159 14.611959520772999
Al 2.8704382909855 1.932373345159 2.981626620773
Al 2.6915069409855 1.834368955159 14.665188740772999
Al 1.1750222959854997 4.457128695159 2.976509150773
Al 0.9960909459854997 4.359124305159 14.660071270772999
Al 1.3233692140145 0.9051966748409999 8.793041529226999
Al 1.1444378640144999 0.8071922848409998 20.476603649227
Al -0.3720467809855001 3.4299520248409996 8.787924059227
Al -0.5509781309855001 3.3319476348409993 20.471486179227
Al 4.3574466390145 1.1106062048409997 8.841153279227
Al 4.1785152890145 1.0126018148409999 20.524715399227
Al 2.6620306440145005 3.635361554841 8.836035809226999
Al 2.4830992940145005 3.5373571648409996 20.519597929227
O -0.1929659822795 1.7109008956379999 4.848450702240999
O -0.3718973322795 1.6128965056379998 16.532012822240997
O -1.8883819772795003 4.235656245637999 4.843333232241
O -2.0673133272795003 4.1376518556379995 16.526895352241
O 2.8411114427205 1.916310425638 4.896562452241
O 2.6621800927205 1.8183060356379999 16.580124572240997
O 1.1456954477204997 4.441065775637999 4.8914449822409996
O 0.9667640977204998 4.343061385637999 16.575007102241
O 1.3526960622795 0.9212595943619999 6.878105697759
O 1.1737647122794999 0.8232552043619998 18.561667817758998
O -0.3427199327205001 3.4460149443619996 6.8729882277589995
O -0.5216512827205001 3.3480105543619993 18.556550347759
O 4.386773487279501 1.1266691243619997 6.926217447758999
O 4.207842137279501 1.028664734362 18.609779567759
O 2.6913574922795003 3.651424474362 6.921099977758999
O 2.5124261422795002 3.5534200843619996 18.604662097759
O 1.2940423657495 0.8891337553199998 10.707977360695
O 1.1151110157495 0.7911293653199999 22.391539480695
O -0.4013736292505001 3.4138891053199996 10.702859890695
O -0.5803049792505001 3.3158847153199993 22.386422010695
O 4.328119790749501 1.09454328532 10.756089110695001
O 4.1491884407495006 0.9965388953199998 22.439651230695
O 2.6327037957495003 3.61929863532 10.750971640695
O 2.4537724457495003 3.5212942453199996 22.434533760694997
O -0.1343122857495 1.74302673468 1.0185790393049998
O -0.3132436357495 1.6450223446799999 12.702141159305
O -1.8297282807495003 4.267782084679999 1.013461569305
O -2.0086596307495004 4.16977769468 12.697023689305
O 2.8997651392505 1.94843626468 1.066690789305
O 2.7208337892505 1.85043187468 12.750252909305
O 1.2043491442504997 4.473191614679999 1.0615733193049999
O 1.0254177942504996 4.375187224679999 12.745135439305
O -0.0447328375 -0.0245010975 2.92089053
O -0.2236641875 -0.1225054875 14.604452649999999
O 4.3280060175 2.9110733125 3.01199656
O 4.1490746675 2.8130689225000003 14.69555868
O 2.9893445875 0.1809084325 2.9690022799999998
O 2.8104132375 0.0829040425 14.6525644
O 1.2939285925 2.7056637825 2.9638848099999997
O 1.1149972424999999 2.6076593925 14.64744693
O -0.1341985125 -0.0735032925 8.76267159
O -0.3131298625 -0.1715076825 20.446233709999998
O 4.2385403424999994 2.8620711175 8.853777619999999
O 4.059608992499999 2.7640667275 20.53733974
O 2.8998789125 0.1319062375 8.81078334
O 2.7209475625 0.0339018475 20.494345459999998
O 1.2044629175 2.6566615875 8.80566587
O 1.0255315674999999 2.5586571974999996 20.48922799
