40

Al 0.07200890375 -0.04113193 12.08849222875
Ga 0.01028698625 -0.00587599 1.72692746125
Al 0.065230619994231 3.315554370410083 10.947475586037935
Ga 2.921271030005769 1.6666392595899169 2.8660743339620653
Al 2.904086155 4.8115e-05 -0.017272405
Al -1.451983275 2.51455266 0.01633752
Ga 1.45210288 2.514600775 -0.000934885
Ga -1.424511413744231 4.175267814589917 4.626611720212065
Ga 0.0274718612557689 1.6607151545899168 4.610274200212065
Al 1.479574741255769 4.175315929589917 4.609339315212065
Ga 1.5069269087442312 0.806877700410083 9.204210604787935
Al 4.411013063744231 0.806925815410083 9.186938199787935
Al 2.9590297887442305 3.3214784754100837 9.203275719787936
Al 0.0446566483171899 3.327306349940004 7.493620801692132
Ga 2.9418450016828097 1.654887280059996 6.3199291183078685
Al 0.041147945 -0.02350396 6.907709845
O 4.373643329505769 0.828622181989917 12.664267137862065
O 2.9797393855057686 3.242592735589917 12.679951157062066
O 1.5857206207057688 0.828575991589917 12.680848646662065
O 1.4007810292942313 4.153617638410084 1.132701273337935
O -1.387141679505769 4.153571448010084 1.149282782137935
O 0.0067622644942312 1.7396008944100831 1.133598762937935
O 0.06131043805 -0.0350209004 10.29248766905
O 0.02098545195 -0.0119870196 3.5229320209500004
O 0.0759290865171899 3.309443340340004 12.743480283892133
O 2.91057256348281 1.6727502896599962 1.0700696361078683
O 1.5717685921828095 2.445896437659996 10.337156004407868
O 2.9656725361828093 0.0319258840599961 10.321471985207868
O 4.35969130098281 2.445942628059996 10.320574495607868
O -1.3731896509828097 2.536251001940004 3.4929754243921316
O 1.4147330578171904 2.536297192340004 3.4763939155921317
O 0.0208291138171905 4.950267745940003 3.492077934792132
O -1.4618812367499998 4.196964232400001 8.10394038265
O 0.04818136925 1.5818294660000003 8.08694936185
O 1.5583683644500006 4.1970142720000005 8.08597708145
O 1.4281332855499997 0.785179358 5.7275728385499995
O 4.44838288675 0.7852293976 5.7096095373499995
O 2.93832028075 3.400364164000001 5.72660055815
O 0.033958181794231 3.3334173800100833 5.697616103837936
O 2.9525434682057687 1.6487762499899168 8.115933816162066
