40

Al 0.0048405770416185 -0.0033867203424605 1.7959913781982715
Ga 0.0330108729583815 -0.0230961296575395 12.247970171801729
Al -1.3677067973716366 4.1150096379030225 4.5947129654279815
Al 0.0181368083259673 1.6958594566426972 4.586406854438347
Al 1.4203672583487525 4.105784225241562 4.587105562564638
Al 1.504536141651248 0.8295264747584381 9.458294557435362
Al 4.292610197371637 0.8203010620969781 9.45068715457202
Al 2.9067665916740326 3.2394512433573035 9.458993265561654
Al 0.0177467660429477 3.309645690971787 2.4180516233578495
Al 2.9071566339570527 1.625665009028213 11.627348496642151
Al 0.0321581688968867 3.2995627213611 7.765090840145571
Al 2.8927452311031137 1.6357479786389 6.280309279854429
Al 0.018925725 -0.013241425 7.021980775
In 2.870182515 -0.0094971 -0.00783144
Al -1.42665654 2.490393875 0.008550725
Al 1.4435259750000002 2.480896775 0.000719285
O 1.4515314858720922 2.4751148251343693 3.5404306503045175
O 0.0264036083547024 4.9628402430973075 3.54897221320268
O -1.4155756285630854 2.4846017489917194 3.5482536989165574
O 4.340479028563086 2.4507089510082807 10.497146421083443
O 1.4733719141279082 2.4601958748656307 10.504969469695482
O 2.898499791645298 -0.027529543097307 10.49642790679732
O 0.0462825915197882 3.2896805380984007 13.005652251451579
O 2.878620808480212 1.6456301619015994 1.039747868548421
O 0.009805399953804 -0.006860369580732 3.6380814984259557
O 0.028046050046196 -0.019622480419268 10.405880051574044
O -1.3434286272231226 4.101969651586613 1.1788101655092595
O 0.0090619741534839 1.741040994109342 1.1707039571309934
O 1.3775450387812898 4.092966266307677 1.171385849496069
O 1.5473583612187107 0.842344433692324 12.874014270503931
O 4.268332027223123 0.833341048413388 12.866589954490742
O 2.915841425846517 3.194269705890658 12.874696162869007
O -1.51289789741835 4.198319731378581 8.252716695220462
O 0.027385558703874 1.5095769419678822 8.243484942597401
O 1.5858820260983342 4.188066229150822 8.244261515482798
O 1.339021373901666 0.7472444708491781 5.801138604517202
O 4.437801297418351 0.7369909686214181 5.792683424779538
O 2.8975178412961267 3.4257337580321185 5.8019151774025985
O 0.0270639284705207 3.303126917846978 5.874983151421897
O 2.8978394715294797 1.6321837821530218 8.170416968578104
