40

In -0.0238861370939672 3.513594183043807 14.270163342687955
Al 1.5219637798423715 2.614180485062805 2.5690871927681567
Al 3.0196608548423716 -0.0180856049371943 2.579955807768157
Ga -1.5055785001576285 2.6354063750628054 2.4608726227681568
Al 3.0382583535015963 1.7265428556433866 0.1370403507938879
Ga 3.0205251472515964 1.7336084968933867 5.698458024543887
Ga -0.0137924939076285 0.0054954988128057 4.325547129018157
Al -1.5106252764984043 4.389455690643387 7.433180730793888
In -0.0129282014984042 1.7571896006433865 7.444049345793887
In 1.5169170035015962 4.368229800643387 7.541395300793888
In -0.0120639995939672 3.508883755543807 10.562551560187954
Al 3.0087030097515965 1.7383189243933865 9.406069807043888
Al 4.507264286656032 0.8577469892938074 12.535440636437954
Ga 3.0095672116560332 3.4900130792938073 12.524572021437955
In 1.4797220066560328 0.8789728792938074 12.427226066437955
Ga -0.0315257001576285 0.0125611400628057 9.886964802768157
O 4.482315420351597 0.8790269673933868 1.435734976043888
O 3.044526228351596 3.4060024137933866 1.425301105643888
O 1.5758748315515958 0.8994038217933867 1.331848988843888
O -0.0431113949076285 0.0171773590128057 13.520424349618157
O 0.0172549014060328 3.497201895343807 1.367674339587955
O 1.5469127366515956 2.592900453893387 13.668792855543888
O 2.9847019286515954 0.0659250074933868 13.679226725943888
O 4.453353325451596 2.572523599493387 13.772678842743888
O 1.449726273506033 2.654302226043807 6.299828511687955
O 0.0119370815060329 5.181277672443807 6.289394641287955
O -1.4567143152939672 2.6746790804438074 6.195942524487955
O 3.0266726587515964 1.7311590745933867 3.7704998976438877
O -0.0199400054076285 0.0079449211128057 6.253505255918157
O -1.4383878601939675 4.349334002543807 3.702439261187955
O -0.0005986681939673 1.8223585561438076 3.712873131587955
O 1.468052728606033 4.328957148143807 3.806325248387955
O -1.5828627833076285 4.429577431812804 11.163922198018156
O -0.0252578253076285 1.6920206982128057 11.175225557618157
O 1.565781187892372 4.407502506212805 11.276465350818157
O -0.0059164880939672 3.5064343332438073 8.634593433287954
O 3.0025554982515965 1.7407683466933865 11.334027933943888
O 4.579501792992371 0.8176252483128057 8.804699317518157
O 3.021896834992371 3.555181981912806 8.793395957918158
O 1.4308578217923715 0.8397001739128057 8.692156164718158
