80

Ga 7.5909971325 2.5249230925000004 7.5971306125
Ga 2.5297327724999996 7.587577967500001 7.5989338075
In 7.593413377499999 7.5904185975 2.5383585275000002
Ga 7.5917756925 7.5869655675 7.6004669775
Ga 2.5313704574999996 7.591030997500001 2.5368253575
In 7.5926348175 2.5283761225 2.5350221625000002
Ga 2.5289542124999995 2.5255354925000004 7.5955974425
Ga 2.5305918974999995 2.5289885225 2.5334889925
In 7.592152312919999 4.7134519567 5.0675176971800004
In 2.5325256379199996 9.7795598617 0.00721244218
In 7.593895882079999 5.4053427633 0.00586299282
In 5.061684437579999 7.58923308854 4.7244227929000004
In -0.00277472742 2.52434998354 9.7816617079
In -0.00058120758 7.58937587646 5.411336372100001
In 4.71614603394 5.0562921732 7.59792795444
In 9.779048078939999 -0.0029096718 2.53401630944
In 5.40380531106 -0.0058335882 7.5948001005600005
In 2.53021527708 5.4025021333000005 5.06643827282
In 7.5931173220799995 0.3433002883 0.00252662782
In 2.53174707792 4.717517386700001 0.00387607718
In 5.06068315242 2.52672100146 5.4095331771
In 0.00105647742 7.59282890646 0.3492279221
In -0.00113704242 2.5278030135400003 4.7195532579
In 5.406221556059999 5.0596619168000005 2.53602801556
In 0.3417623910599999 -0.0052211882 7.5932669305600005
In 4.71700515894 -0.0022972718 2.53248313944
In 2.52943671708 0.3404596583 5.06310190782
In 5.06232083742 2.53017403146 0.3474247271000001
In 0.3441786360599999 5.0602743168 2.5344948455600003
In 7.592930872919999 9.7754944317 5.0708540621800005
In 5.06004675258 7.585780058540001 9.7865312429
In 9.778188953939999 5.0556797732000005 7.59946112444
O 6.275393412 3.9532274640900003 6.6459964546300005
O 3.8457756008399997 9.01426555181 8.55194967523
O 8.90963286756 6.16341256519 1.58613990817
O 6.275117094599999 6.1589796439099995 8.55080388697
O 6.6410850557700005 6.27342893074 3.9647174195400003
O 8.54240179989 3.8399652503399997 9.02580088626
O 1.5787329563099999 8.90479789666 6.17199844354
O 8.543699163029999 6.27169314726 6.17237317566
O 3.95750830476 6.6366390732000005 6.282590727820001
O 9.02063005212 8.541012098200001 3.8555663150600004
O 6.162928861679999 1.5725340162000003 8.91221921894
O 6.164851756439999 8.539700037400001 6.28451366318
O 3.8469741779999995 6.16272662591 3.48795951537
O 6.276591989159999 1.1016885381900001 1.58200629477
O 1.21273472244 3.9525415248100004 8.54781606183
O 3.8472504953999995 3.95697444609 1.58315208303
O 3.4812825342299996 3.84252515926 6.16923855046
O 1.5799657901099997 6.275988839659999 1.10815508374
O 8.543634633689999 1.2111561933400001 3.9619575264600004
O 1.5786684269699998 3.84426094274 3.9615827943400004
O 6.164859285239999 3.4793150167999998 3.85136524218
O 1.1017375378799998 1.5749419918 6.27838965494
O 3.95943872832 8.5434200738 1.22173675106
O 3.95751583356 1.5762540526000002 3.8494423068200003
O 1.2157667369999998 9.01933536909 1.58569119963
O 8.908677645839997 3.9550637068100003 3.48803803023
O 3.84517370256 1.0985294601900002 6.643378823170001
O 1.2139332995999998 1.10100259891 3.48382590197
O 1.57662589077 1.2085458257400001 9.02195633454
O 3.4827751248899994 8.90607315534 3.9654956312600005
O 6.64163500131 3.84559605166 1.10808679854
O 3.482515368029999 1.21371610226 1.1053951906600001
O 9.020410349759999 1.5774372282 1.21867908282
O 3.9561708871200003 3.4761289932 8.91280523006
O 1.10330218668 6.6386419212000005 3.8519139639400004
O 1.1036679614399998 3.4817229924 1.21753567818
O 8.906600852999999 1.09661872091 8.54826477037
O 1.21368994416 6.16089038319 6.64591793977
O 6.277193887439999 9.01742462981 3.4905771468299998
O 8.908434290399999 9.01495149109 6.65013006803
O 8.54574169923 8.90740826426 1.1119996354600001
O 6.63959246511 1.2098809346600001 6.16846033874
O 3.4807325886899996 6.2703580383399995 9.02586917146
O 6.63985222197 8.902237987740001 9.028560779340001
O 1.10195724024 8.5385168618 8.915276887180001
O 6.166196702879999 6.6398250968 1.22115073994
O 9.019065403319999 3.4773121688 6.28204200606
O 9.018699628559999 6.6342310976 8.91642029182
