20

Al 10.631335593180001 -1.69053e-06 1.20241534566
In -0.1117524131800002 -1.67947e-06 4.59998271434
Al 4.6122815281800005 1.5239167544699999 1.19325443566
Al 5.90729159182 1.52391534553 4.60917939434
In 9.08233423233 1.5239152030799998 3.98330838061
Al 1.43723888767 1.5239168969199999 1.81912544939
Al 3.06329022733 -1.82192e-06 3.9741117006100004
Al 7.456292952670001 -1.54808e-06 1.82828635939
O 8.70033363635 -2.9212e-06 5.16312460595
O 1.81924954365 -4.488e-07 0.63927345405
O 2.6812795713500006 1.5239155238 5.15396369595
O 7.838293548649999 1.5239165762 0.64847013405
O 9.29191609696 -2.02649e-06 2.5428074123199997
O 1.2276670830399998 -1.34351e-06 3.2595906476799996
O 3.2728620319600004 1.52391641851 2.53364650232
O 7.2467110880400005 1.52391568149 3.2687873276799997
O -1.08010920099 1.52391628047 4.29763338457
O 11.599682320989999 1.52391581953 1.50480044543
O 4.938944864010001 -2.16453e-06 4.3067942945699995
O 5.58063831599 -1.20547e-06 1.4956037654299998
