80

In 1.80472592522 8.172363398279998 7.048254398509999
In 7.432190045220001 8.16840879328 7.014159343509999
In 3.8849500395799996 1.4322773761 1.97614382359
In 9.51241415958 1.4283227711 1.94204876859
In 1.07250358434 3.3657999592999994 1.98331105033
In 6.69996770434 3.3618453542999993 1.9492159953300001
In 4.6171723804600004 6.23884081508 7.041087171769999
In 10.244636500460002 6.23488621008 7.006992116769999
In 1.0115038395199998 6.291157446005 -0.038287360885
In 6.63896795952 6.2872028410050005 -0.072382415885
In 4.65355926048 3.292994433995 5.048907250885
In 10.281023380479999 3.289039828995 5.014812195885
In 1.8386561545600002 1.5355443520949998 5.074954656305
In 7.466120274560001 1.531589747095 5.040859601305
In 3.8888761454400003 8.100609797905 10.122919883695
In 9.516340265440002 8.096655192904999 10.088824828695
In 1.00801163436 0.33814905459 10.16987205471
In 6.63547575436 0.33419444959 10.13577699971
In 4.71939572724 9.29790109087 5.00762797599
In 10.346859847240001 9.29394648587 4.97353292099
In 1.90286334004 5.09255203937 5.04619695069
In 7.5303274600400005 5.0885974343700004 5.01210189569
In 3.82454402156 4.5434981060899995 10.13130308001
In 9.452008141559999 4.539543501089999 10.09720802501
In 3.90497539026 1.539467422015 7.986335053215
Al 9.53243951026 1.5355128170149999 7.952239998215
Al 1.7959450305399998 8.074533760965 2.8717690058849996
In 7.4234091505399995 8.070579155965 2.8376739508849997
In 4.60849331586 6.294004863365 2.8638191810649998
In 10.23595743586 6.290050258365 2.829724126065
In 1.09242710494 3.319996319615 7.994284878035001
In 6.7198912249400005 3.316041714615 7.960189823035
O 4.725210521299999 6.4402081387150005 9.036231219635
O 10.3526746413 6.436253533715 9.002136164635
O 0.9889533699000002 3.184817525505 3.981570825265
O 6.616417489900001 3.180862920505 3.947475770265
O 3.8016544003400004 1.633779156305 3.972447103325
O 9.429118520340001 1.629824551305 3.938352048325
O 1.91250949086 7.991246507914998 9.045354941575
O 7.53997361086 7.987291902914999 9.011259886575
O 2.9937690692200003 0.116692208355 6.389443059555
O 8.62123318922 0.112737603355 6.355348004555
O 2.68741108438 9.480876257304999 1.249488530145
O 8.31487520438 9.476921652304998 1.215393475145
O 5.498075513220001 4.869964176104999 1.256016769805
O 11.12553963322 4.866009571105 1.2219217148050001
O 0.18310464038 4.727604289555001 6.382914819895
O 5.81056876038 4.723649684555 6.3488197648949996
O 0.09723407726 7.9140940800449995 1.191695848565
O 5.72469819726 7.910139475044999 1.157600793565
O 5.58294656914 1.6826423492949998 6.284239666735
O 11.210410689140001 1.678687744295 6.250144611735
O 2.77019462366 3.157183875695 6.2937546877149995
O 8.397658743660001 3.153229270695 6.259659632715
O 2.9099860227399996 6.439552553645 1.1821808275849999
O 8.53745014274 6.4355979486449995 1.148085772585
O 5.51506473154 8.013691539449999 6.42548623594
O 11.14252885154 8.009736934449998 6.39139118094
O 0.16723986766 1.58481296707 1.39681593746
O 5.79470398766 1.5808583620699999 1.3627208824600001
O 2.98205387226 3.20839357407 1.37145330536
O 8.60951799226 3.20443896907 1.3373582503600001
O 2.70025072694 6.39011093245 6.4508488680400005
O 8.32771484694 6.38615632745 6.41675381304
O 2.0866948191200003 1.6691642629150003 8.801539107445
O 7.71415893912 1.6652096579150002 8.767444052445
O 3.6240957352799996 7.953053278724998 3.666151186355
O 9.25155985528 7.949098673724999 3.6320561313549997
O 0.80934537448 6.4250937252249996 3.691024694655
O 6.436809494479999 6.421139120225 3.656929639655
O 4.9014451799200005 3.197123816415 8.776665599145
O 10.528909299919999 3.193169211415 8.742570544145
O 4.7607886487 0.05305809857 9.13997680664
O 10.388252768700001 0.04910349357 9.10588175164
O 0.9542498113000001 9.57269559743 4.0204468033600005
O 6.5817139312999995 9.56874099243 3.98635174836
O 3.7648124100600002 4.808789830629999 4.0277576411
O 9.39227653006 4.80483522563 3.9936625861
O 1.9502260499400002 4.81696386537 9.1326659689
O 7.57769016994 4.813009260369999 9.0985709139
