80

Al 7.502383859999999 2.496595325 7.506189465
Al 2.499580385 7.498356910000001 7.509128475
Al 7.502558665 7.502394310000001 2.507239945
In 7.501938389999999 7.498862805000001 7.509667665
Al 2.5002006599999995 7.501888415000001 2.5067007550000002
Al 7.503004134999999 2.50012683 2.503761745
Al 2.500025855 2.49608943 7.505650275
Al 2.50064613 2.4996209350000003 2.503222555
In 7.502501554459999 4.659340628860001 5.0064781874
In 2.5003183544599996 9.664633718860001 0.0069894774
In 7.50306124554 5.343180511140001 0.0045235026
In 5.0011117036999995 7.500615752340001 4.668019125040001
In -0.0014211063 2.4943108723400003 9.66642945504
In -0.0013306587 7.499629572660001 5.347810104960001
In 4.66082177816 4.997441716640001 7.50762230508
In 9.664245528159999 -0.00078836336 2.50225557508
In 5.34158793684 -0.00475696164 7.50421743492
In 2.5000829655399994 5.339143111140001 5.0064120326
In 7.5035067155399995 0.3409130311400001 0.0010453026
In 2.50076382446 4.662366238860001 0.0035112774
In 5.001472816299999 2.4978679876600003 5.34487109496
In -0.0007103837 7.503161077660001 0.34538238496
In -0.0008008313 2.49784237734 4.66400173504
In 5.34176274184 5.00104202336 2.50526791492
In 0.33922993184 -0.00526285664 7.50367824492
In 4.66188752316 -0.00129425836 2.50171638508
In 2.5005284355399997 0.3368756311400001 5.0029338326
In 5.002093091299999 2.50139949266 0.34244337496
In 0.33940473684 5.00053612836 2.50472872492
In 7.5020560844599995 9.661608108860001 5.0099563874
In 5.000491428699999 7.49708424734 9.670446845039999
In 9.663179783159997 4.997947611640001 7.50816149508
O 6.20176176786 3.9077671446000006 6.566573716640001
O 3.7999512320599997 8.90846394912 8.45070592816
O 8.80341398054 6.09255033628 1.56594287064
O 6.20133431954 6.08742792 8.44900303456
O 6.56205626471 6.20071377253 3.91691886232
O 8.44253642519 3.79628409365 8.91787978176
O 1.55919617541 8.79984723095 6.09924682224
O 8.442672434689998 6.199364252870001 6.09818008368
O 3.9104903622699996 6.55899147745 6.20799541778
O 8.91297860255 8.442045067330001 3.80867710538
O 6.0916413794499995 1.5551081850700001 8.80601471902
O 6.091350955729999 8.44006462015 6.20953830782
O 3.8008227521399998 6.0907165954 3.44631650336
O 6.2026332879399995 1.09001979088 1.56218429184
O 1.1991705394599999 3.9059334037200006 8.44694734936
O 3.8012502004599997 3.9110558200000005 1.56388718544
O 3.4405282552899994 3.7977699674700003 6.09597135768
O 1.56004809481 6.20219964635 1.09501043824
O 8.44338834459 1.19863650905 3.91364339776
O 1.55991208531 3.7991194871300005 3.91471013632
O 6.092094157729999 3.43949226255 3.80489480222
O 1.0896059174500001 1.5564386726700001 6.20421311462
O 3.9109431405499997 8.44337555493 1.20687550098
O 3.9112335642699994 1.5584191198500001 3.80335191218
O 1.19957856786 8.913060234600001 1.56708500664
O 8.80337498206 3.9102338691200003 3.4453391981599997
O 3.8008811705399994 1.08624545628 6.56435320064
O 1.2000420595399999 1.08818605 3.4425579245599995
O 1.55952345471 1.1944088925299998 8.91532919232
O 3.4403532251899995 8.80157718365 3.9183910717600003
O 6.56261992541 3.8016171509500007 1.09388009224
O 3.441380174689999 1.20012238287 1.09173497368
O 8.91391411227 1.56076139745 1.2026286877799999
O 3.9104457925499996 3.43574018733 8.80708743538
O 1.08945817945 6.56040127507 3.80652600902
O 1.09005869573 3.4408227501499997 1.20309319782
O 8.80300595214 1.0854235054 8.44580521336
O 1.1992095379399998 6.0882498708799995 6.56755102184
O 6.20170334946 8.91223828372 3.44853701936
O 8.80254246046 8.91029769 6.57033229544
O 8.44306106529 8.80407484747 1.09756102768
O 6.56223129481 1.19690655635 6.09449914824
O 3.4399645945899993 6.196866589050001 8.91901012776
O 6.56120434531 8.79836135713 8.92115524632
O 1.08867040773 8.43772234255 8.81026153222
O 6.092138727449999 6.562743552670001 1.20580278462
O 8.91312634055 3.43808246493 6.20636421098
O 8.912525824269999 6.5576609898500005 8.80979702218
