80

In 0.0176461475 -0.064777155 6.32606686
In 0.0529384425 -0.194331465 18.97820058
In 5.3483134325 2.95981773 6.34354575
In 5.383605727500001 2.83026342 18.99567947
In 3.5555505825 -0.091018875 6.317136635
In 3.5908428775 -0.220573185 18.969270355
In 1.8104089975000002 2.9860594500000004 6.352475975
In 1.8457012925 2.8565051400000003 19.004609695
In 0.0 0.0 0.0
In 0.035292295 -0.12955431 12.65213372
In 5.3306672850000005 3.024594885 0.01747889
In 5.36595958 2.895040575 12.66961261
In 3.537904435 -0.02624172 -0.008930225
In 3.5731967300000003 -0.15579603 12.643203495
In 1.7927628500000001 3.050836605 0.026409115
In 1.8280551450000002 2.921282295 12.678542835
In 0.0246952413744999 2.010045468669 3.1836141900515
In 0.0599875363744999 1.8804911586689999 15.8357479100515
Ga -1.7204463436255002 5.087123793669 3.2189535300515
In -1.6851540486255001 4.957569483668999 15.8710872500515
In 3.5625996763745005 1.983803748669 3.1746839650515
In 3.5978919713745006 1.854249438669 15.8268176850515
In 1.8174580913745002 5.060882073669 3.2100233050515
Ga 1.8527503863745003 4.931327763669 15.8621570250515
In 1.8033599036255 0.9112368263309999 9.4949286449485
In 1.8386521986255 0.7816825163309999 22.1470623649485
In 0.0582183186255001 3.988315151331 9.5302679849485
In 0.0935106136255001 3.8587608413309997 22.1824017049485
In 5.341264338625501 0.8849951063309999 9.4859984199485
In 5.3765566336255 0.7554407963309999 22.1381321399485
In 3.596122753625501 3.962073431331 9.5213377599485
In 3.6314150486255006 3.832519121331 22.1734714799485
O 0.0304796485249999 1.9888115172599998 5.2572989067595
O 0.0657719435249999 1.8592572072599998 17.9094326267595
O -1.7146619364750002 5.06588984226 5.2926382467595
O -1.6793696414750001 4.93633553226 17.9447719667595
O 3.5683840835250007 1.96256979726 5.2483686817595
O 3.603676378525001 1.83301548726 17.9005024017595
O 1.8232424985250002 5.03964812226 5.2837080217595
O 1.8585347935250003 4.91009381226 17.9358417417595
O 1.797575496475 0.93247077774 7.421243928240499
O 1.832867791475 0.8029164677399999 20.073377648240502
O 0.0524339114750001 4.00954910274 7.456583268240499
O 0.0877262064750001 3.87999479274 20.108716988240502
O 5.3354799314750005 0.90622905774 7.4123137032405
O 5.370772226475 0.7766747477399999 20.0644474232405
O 3.5903383464750007 3.98330738274 7.4476530432405
O 3.625630641475001 3.85375307274 20.099786763240502
O 1.809144310776 0.8900028749219999 11.568613361656501
O 1.844436605776 0.760448564922 24.220747081656498
O 0.0640027257760001 3.967081199922 11.603952701656501
O 0.0992950207760001 3.837526889922 24.256086421656498
O 5.347048745776001 0.8637611549219999 11.559683136656501
O 5.382341040776001 0.734206844922 24.2118168566565
O 3.6019071607760007 3.9408394799220003 11.595022476656501
O 3.637199455776001 3.8112851699220003 24.247156196656498
O 0.0189108342239999 2.031279420078 1.1099294733435
O 0.0542031292239999 1.9017251100779997 13.7620631933435
O -1.7262307507760002 5.108357745078 1.1452688133435
O -1.690938455776 4.9788034350779995 13.7974025333435
O 3.5568152692240007 2.005037700078 1.1009992483435
O 3.592107564224001 1.875483390078 13.7531329683435
O 1.8116736842240002 5.082116025078 1.1363385883435
O 1.8469659792240003 4.952561715078 13.7884723083435
O 0.00882307375 -0.0323885775 3.16303343
O 0.04411536875 -0.1619428875 15.81516715
O 5.339490358750001 2.9922063075 3.18051232
O 5.3747826537500005 2.8626519975 15.83264604
O 3.54672750875 -0.0586302975 3.154103205
O 3.58201980375 -0.1881846075 15.806236925
O 1.80158592375 3.0184480275000003 3.189442545
O 1.8368782187500001 2.8888937175000002 15.841576265
O 0.02646922125 -0.0971657325 9.48910029
O 0.06176151625 -0.2267200425 22.14123401
O 5.357136506250001 2.9274291525 9.50657918
O 5.39242880125 2.7978748424999997 22.1587129
O 3.5643736562500004 -0.1234074525 9.480170065
O 3.59966595125 -0.2529617625 22.132303785
O 1.81923207125 2.9536708725 9.515509405
O 1.8545243662500002 2.8241165625 22.167643125
