80

Al 6.991504729999999 2.328308975 6.954640175
Al 2.3296118999999997 6.964667015 6.980918225
Al 6.963289269999999 6.988212744999999 2.31565175
Al 6.979031099999999 6.977652314999999 6.96480435
Al 2.3138700699999997 6.975227445 2.331765625
Al 6.9757628999999985 2.338869405 2.305487575
Al 2.34208553 2.315323675 6.97075405
Ga 2.3263437 2.325884105 2.3216014499999997
Ga 6.978245206839999 4.34210551288 4.6344547986
Ga 2.3006105468399998 8.98902398288 0.0115802486
Ga 6.960806963159999 4.98497663712 -0.0133154736
Ga 4.6453801405599995 6.97715798924 4.3321426107
Al 0.02417640056 2.3042689192399997 8.9872449107
Ga -0.00189817056 6.9627364707599995 4.9805412393
Ga 4.3443978094 4.6456049946 6.9688749434999995
Ga 8.990548809399998 0.0198073846 2.2934442935
Ga 4.9891924506 -0.0019723446 6.956519281499999
Ga 2.32712959316 4.9614309071200005 4.6519510014
Ga 6.973280593159999 0.33563329712 -0.0234796486
Ga 2.31308417684 4.33968064288 0.0014160736
Ga 4.65999465944 2.3263784307599997 4.9542631893
Ga -0.01764000056 6.973296900759999 0.3313886393
Ga 0.00843457056 2.31482934924 4.3380923107000005
Ga 4.9609769906 4.6579314254 2.3175308565
Ga 0.3397732506 -0.0149576446 6.9726331565
Ga 4.341129609399999 0.0068220846 2.3095581684999997
Ga 2.3396032231599997 0.31208756712 4.6417868264
Ga 4.644252829439999 2.3369388607599997 0.3051105893
Ga 0.3115577905999999 4.6449461254 2.3336447314999997
Ga 6.965771576839999 8.99144885288 4.6446189736
Ga 4.66112197056 6.96659755924 8.981295210699999
Ga 8.993817009399997 4.6585902946 6.9527610685
O 5.7761787103 3.6380329797199997 6.08765539105
O 3.5379027923799997 8.27717265404 7.85363560365
O 8.172696361619998 5.682459461959999 1.4345551563499999
O 5.7766591357 5.661175954279999 7.84016834895
O 6.096880800259999 5.773964198939999 3.6270995062
O 7.866791591859999 3.53660143854 8.2653144852
O 1.4478387505399999 8.174033088259998 5.6755292858
O 7.851925857339999 5.774242324259999 5.6480712228
O 3.6390002810399995 6.09699803348 5.765683571349999
O 8.27617331776 7.863205435719999 3.52179817815
O 5.686806433839999 1.44782486068 8.16605309885
O 5.6614569673599995 7.8508127201199995 5.76247965165
O 3.5291960897 5.665503440279999 3.1987504089499996
O 5.7674720076199995 1.02636376596 1.43277019635
O 1.13267843838 3.6210769580399997 7.85185064365
O 3.5287156643 3.64236046572 1.44623745105
O 3.2084939997399995 3.52957222106 5.659306293799999
O 1.4385832081399998 5.7669349814599995 1.0210913148
O 7.857536049459999 1.1295033317399998 3.6108765142
O 1.4534489426599997 3.52929409574 3.6383345772
O 5.66637451896 3.2065383865199997 3.52072222865
O 1.02920148224 1.4403309842799998 5.76460762185
O 3.61856836616 7.8557115593199995 1.1203527011499999
O 3.6439178326399997 1.45272369988 3.5239261483499997
O 1.0985440503 8.28495144972 1.46478084105
O 8.184053792379999 3.65137504404 3.1782049536499994
O 3.55149262162 1.00957039196 6.08965745635
O 1.1239717356999999 1.00940774428 3.1969654489499995
O 1.4756770602599998 1.10107512894 8.2822018062
O 3.1891569318599995 8.18351990854 3.6424399352
O 6.09398975054 3.54823547826 1.0000986358
O 3.1992384573399995 1.1224741142599999 1.0048683228
O 8.285151281040001 1.47120042348 1.0902529213499998
O 3.6549695777599998 3.1903163657199993 8.17690047815
O 1.0091717738400001 6.09474333068 3.54317854885
O 1.00876956736 3.1990445101199994 1.11927675165
O 8.206830749699998 1.01858497028 7.821624958949999
O 1.12132100762 5.65216137596 6.10820084635
O 5.75388217838 8.29396602804 3.1967483436499995
O 8.181403064299998 8.29412867572 6.08944035105
O 7.829697739739999 8.202461291059999 1.0042039938
O 6.11621786814 1.12001651146 5.643965864799999
O 3.2113850494599996 5.75530094174 8.2863071642
O 6.10613634266 8.18106230574 8.2815374772
O 1.02022351896 7.8323359965199995 8.19615287865
O 5.65040522224 6.11322005428 1.10950532185
O 8.29620302616 3.2087930893199994 5.7432272511499995
O 8.296605232640001 6.10449190988 8.16712904835
