80

Ga 1.6500062442799999 7.472512634310001 6.529059391569999
In 6.76928749928 7.454194179310001 6.508443906569999
Al 3.5341330993399995 1.2981611483900002 1.8346678136099999
Ga 8.653414354339999 1.2798426933900002 1.8140523286099999
In 0.98078929866 3.0792873877300004 1.84131032671
Al 6.100070553659999 3.0609689327300003 1.82069484171
In 4.20335004496 5.69138639497 6.522416878469999
Al 9.32263129996 5.673067939970001 6.501801393469999
In 0.9368627904249999 5.768771955915001 -0.015629384415
Ga 6.056144045425 5.750453500915 -0.036244869415
Ga 4.232430739575 2.994463284085001 4.6762469344149995
Ga 9.351711994575 2.9761448290850008 4.655631449415
Ga 1.6670543886349998 1.389553550305 4.689893301714999
Ga 6.786335643635 1.371235095305 4.669277816715
Al 3.539918871365 7.3925612396950005 9.369479718285
Al 8.659200126365 7.374242784695001 9.348864233285
Al 0.89861647341 0.27894658761 9.38534897205
Al 6.0178977284099995 0.26062813261 9.36473348705
Al 4.30828142713 8.503130443290003 4.65522653701
Al 9.427562682129999 8.484811988290001 4.6346110520099995
Al 1.73492493923 4.652559545990001 4.67351794751
Al 6.8542061942300005 4.634241090990001 4.652902462509999
In 3.47197296131 4.129517484909999 9.367057561549998
Al 8.591254216309999 4.11119902991 9.34644207655
Al 3.541255675555 1.379531949615 7.379850229765
Al 8.660536930555 1.361213494615 7.359234744765
In 1.6496660194650001 7.394540152085001 2.6756529600149994
Al 6.768947274464999 7.3762216970850005 2.6550374750149994
Al 4.203508578704999 5.753767735465 2.6687201317149998
Ga 9.322789833704999 5.735449280465001 2.648104646715
In 0.9874131163150001 3.0203043662350004 7.386783058064999
Al 6.106694371315 3.0019859112350002 7.366167573065
O 4.298386501575 5.870217651435 8.363859593345
O 9.417667756575 5.851899196435001 8.343244108344999
O 0.900523296205 2.9078569148650004 3.684179756075
O 6.019804551205 2.8895384598650002 3.663564271075
O 3.455113993285 1.4776152323250002 3.6768114549749997
O 8.574395248285 1.4592967773250003 3.6561959699749997
O 1.7437958044950002 7.300459333975001 8.371227894445
O 6.863077059495 7.282140878975 8.350612409444999
O 2.711603760735 0.081207073355 5.900830758704999
O 7.830885015734999 0.062888618355 5.880215273705
O 2.467411139605 8.686899090545001 1.184665702555
O 7.5866923946050004 8.668580635545 1.164050217555
O 5.012026665485 4.449580953605 1.183103705455
O 10.131307920485 4.431262498605 1.162488220455
O 0.166988234855 4.318525210295 5.902392755805
O 5.286269489855 4.300206755295 5.881777270804999
O 0.107128049225 7.256547860565 1.121934512695
O 5.226409304224999 7.238229405565 1.1013190276949998
O 5.071283975435 1.5112562305350001 5.813181861045
O 10.190565230435002 1.4929377755350002 5.7925663760449995
O 2.5164438990749995 2.871321001715 5.820695319745
O 7.635725154075001 2.8530025467150004 5.8000798347449996
O 2.661968125585 5.8964830893850015 1.114421053995
O 7.781249380584998 5.878164634385001 1.093805568995
O 5.02601000995 7.3189547378399995 5.9612169139399995
O 10.14529126495 7.300636282839999 5.94060142894
O 0.15368312553 1.4494912579600001 1.29345714578
O 5.2729643805299995 1.4311728029600002 1.27284166078
O 2.71862306273 2.9315913968600005 1.28006480428
O 7.83790431773 2.9132729418600007 1.25944931928
O 2.4610700727499997 5.836854598940001 5.97460925544
O 7.58035132775 5.818536143940001 5.9539937704399994
O 1.885990488935 1.5009960944450003 8.128795447935
O 7.005271743934999 1.4826776394450003 8.108179962934999
O 3.310884603425 7.276058976154999 3.411711106105
O 8.430165858425001 7.257740521155 3.391095621105
O 0.746256390325 5.8816799764550005 3.4249220006049996
O 5.865537645324999 5.863361521455 3.4043065156049996
O 4.450618702035 2.8953750941450007 8.115584553435
O 9.569899957034998 2.8770566391450005 8.094969068434999
O 4.313662058589999 0.01044948054 8.44162723284
O 9.432943313590002 -0.00786897446 8.42101174784
O 0.88577525541 8.767889399460001 3.73799469316
O 6.005056510409999 8.749570944460002 3.71737920816
O 3.42989202273 4.3902174398 3.73672301126
O 8.54917327773 4.3718989848000005 3.71610752626
O 1.76954529127 4.388121440200001 8.442898914739999
O 6.888826546270001 4.369802985200001 8.42228342974
