80

Al 6.81518203 2.2724564475 6.776504367499999
Al 2.26921454 6.7891321925 6.8033054925
Al 6.784106674999999 6.8137549175 2.2549921125
Ga 6.8007871049999995 6.8037186675 6.7863437025
Al 2.25253411 6.7991684425 2.2719539025
Ga 6.7985016 2.2824926975000004 2.2451527775
Ga 2.283609465 2.2578699725 6.7934661575
Al 2.266929035 2.2679062225 2.2621145675
Al 6.8006232074 4.23497985154 4.5150791652199995
Al 2.2379752874000003 8.761691846540002 0.01052870022
Al 6.7819850676 4.86126776346 -0.01493427522
Al 4.52552633826 6.80212602 4.22101689438
Ga 0.02502912826 2.2462410750000004 8.75949093938
Al -0.00377768826 6.786174615 4.85424250062
Al 4.23405135058 4.5298024397 6.7910583317199995
Al 8.763338410580001 0.0231629447 2.23290561672
Al 4.86474014442 0.0005239803 6.77891219328
Al 2.2670929326 4.83664503846 4.53337910478
Al 6.7963799926 0.3300055434600001 -0.02477361022
Al 2.2523702124000002 4.23042962654 0.00068936522
Al 4.54218980174 2.2694988700000005 4.82744137562
Al -0.02045811826 6.796210865000001 0.32289091062
Al 0.00834869826 2.256277325 4.22813934938
Al 4.833664789419999 4.5418224503 2.25739993828
Ga 0.33316757942 -0.0140624947 6.79587398328
Al 4.23176584558 0.0085764697 2.24986740672
Al 2.2814878576 0.30538281846 4.52353976978
Al 4.52550937174 2.2795351200000002 0.29608978562
Al 0.30209222442 4.5272359753 2.2743617282799997
Al 6.7862282824 8.76624207154 4.52491850022
Al 4.54220676826 6.7920897700000005 8.75236848438
Ga 8.76562391558 4.5443889147 6.77409654172
O 5.629777873410001 3.54836672504 5.93179502645
O 3.44649995889 8.06885380704 7.65356421849
O 7.963238989910001 5.541618269960001 1.39591325571
O 5.62977352779 5.52022342296 7.63987317435
O 5.940617594540001 5.6300542605 3.5334638503
O 7.66807887298 3.4504966595 8.05371492646
O 1.4088323360200001 7.967348334900001 5.53121138774
O 7.65176154646 5.6311629701 5.5027555105
O 3.5454873374300004 5.943977706090001 5.61852105934
O 8.06364080423 7.6671361758100005 3.4302100961
O 5.5443217243700005 1.41385633919 7.9575892107
O 5.515840483970001 7.654092003910001 5.6148253088599995
O 3.4379382665900002 5.52325816496 3.1166632435499997
O 5.621216181110001 1.0027710829599998 1.39489405151
O 1.10447715009 3.5300066200400004 7.652545014289999
O 3.43794261221 3.5514014670400003 1.40858509565
O 3.12709854546 3.4415706295 5.5149944197
O 1.3996372670200001 5.6211282305 0.9947433435399999
O 7.658883803979999 1.1042765551000002 3.51724688226
O 1.4159545935400002 3.4404619199 3.5457027595
O 5.52222880257 3.1276471839099997 3.42993721066
O 1.00407533577 1.40448871419 5.6182481739
O 3.5233944156300008 7.65776855081 1.0908690592999999
O 3.5518756560300004 1.41753288609 3.43363296114
O 1.0671299534099998 8.075078720039999 1.42724456145
O 7.97578701889 3.56221431204 3.09541150349
O 3.46274177991 0.9857333249600001 5.93438730071
O 1.0959154577899999 0.9844109779600001 3.11564403935
O 1.4401203845400004 1.0741693155000003 8.0719378953
O 3.10543095298 7.977208654500001 3.54916446146
O 5.938119396020001 3.4607088399000006 0.97305867274
O 3.11790347646 1.0953505251000002 0.9785263755
O 8.07477439743 1.4373382110900002 1.0603683443399998
O 3.5631435942300005 3.11125123081 7.9686841411
O 0.9816738043700001 5.940568334190001 3.4530387457
O 0.9819824139700001 3.11827955891 1.0905961738599999
O 8.00058618659 0.99654616996 7.621213708549999
O 1.09192912111 5.50941057796 5.95304676651
O 5.60497436009 8.08589156504 3.1140709692899997
O 7.9718006822100005 8.087213912040001 5.93281423065
O 7.62759575546 7.997455574500001 0.9765203747
O 5.962285187020001 1.0944162355000002 5.49929380854
O 3.12959674398 5.6109160501 8.07539959726
O 5.94981266354 7.976274364900001 8.0699318945
O 0.99294174257 7.63428667891 7.98808992566
O 5.50457254577 5.960373659190001 1.0797741289
O 8.086042335630001 3.13105655581 5.5954195243
O 8.085733726030002 5.95334533109 7.9578620961399995
