80

Al 1.6105877735299998 7.3267669371399995 6.422311821609999
Al 6.6267641285300005 7.30958468214 6.406083741609999
In 3.4613215975899996 1.27282910634 1.80653889995
Al 8.47749795259 1.2556468513399999 1.79031081995
In 0.95914681051 3.0198848467599997 1.81228858853
Al 5.975323165509999 3.0027025917599994 1.7960605085299999
Al 4.112762560610001 5.579711196720001 6.416562133029999
Ga 9.12893891561 5.562528941720001 6.400334053029999
Al 0.9171579977249998 5.659843759035001 -0.0106065255
Al 5.933334352725001 5.642661504035 -0.0268346055
Ga 4.143090557274999 2.935116905965 4.600561605499999
Al 9.159266912275 2.917934650965 4.5843335255
Al 1.6296159251349998 1.3601561088249998 4.61082931214
Ga 6.645792280135 1.342973853825 4.59460123214
Al 3.4602286098649997 7.246569476174999 9.214901507859999
Al 8.476404964864999 7.229387221174999 9.19867342786
Al 0.87316223796 0.26705435004 9.223462505519999
Al 5.88933859296 0.24987209504 9.20723442552
In 4.21662310508 8.33964770512 4.583796763
Ga 9.23279946008 8.322465450120001 4.567568682999999
Al 1.6956542751800001 4.56148423022 4.5970608753999995
Al 6.71183063018 4.54430197522 4.5808327954
Al 3.39413106786 4.04521782494 9.210198393119999
In 8.410307422859999 4.02803556994 9.19397031312
Al 3.4639688904050003 1.3486720395849998 7.2556016331099995
Al 8.480145245405 1.331489784585 7.23937355311
Al 1.613267757115 7.253041689494999 2.63568872165
Al 6.629444112114999 7.235859434495 2.6194606416499995
Al 4.115910931555 5.643686116434999 2.62975175771
Al 9.132087286554999 5.626503861434999 2.6135236777099995
Al 0.9613257159649999 2.958027612645 7.2615385970499995
Al 5.977502070965 2.9408453576449998 7.24531051705
O 4.2044238549249995 5.753850231905 8.226264206509999
O 9.220600209925 5.736667976905 8.21003612651
O 0.8790871403549999 2.8503576602150003 3.6230106051299997
O 5.895263495355 2.833175405215 3.60678252513
O 3.382432895835 1.447552338195 3.61679272815
O 8.398609250835 1.430370083195 3.6005646481499998
O 1.701078099445 7.156655553925 8.23248208349
O 6.7172544544449995 7.139473298924999 8.216254003489999
O 2.6523719256850002 0.075835794945 5.800677856069999
O 7.668548280684999 0.058653539945 5.78444977607
O 2.4155123921549997 8.522160219415001 1.17210736485
O 7.4316887471549995 8.504977964415 1.15587928485
O 4.909490400435 4.365351550194999 1.16963499507
O 9.925666755435 4.3481692951949995 1.15340691507
O 0.158393917405 4.232644464165 5.80315022585
O 5.174570272404999 4.2154622091650005 5.786922145849999
O 0.103033530575 7.118543221914999 1.1076056481699998
O 5.119209885575 7.101360966914999 1.09137756817
O 4.964377251585 1.4792645537249998 5.71740716091
O 9.980553606585 1.4620822987249997 5.701179080909999
O 2.460797302425 2.813219792065 5.72371867557
O 7.476973657425 2.796037537065 5.7074905955699995
O 2.606613479735 5.784587983574999 1.10129413351
O 7.622789834734999 5.767405728575 1.0850660535099999
O 4.91904961765 7.177032351199999 5.86687779551
O 9.93522597265 7.1598500962 5.8506497155099995
O 0.14936742783 1.42117543172 1.27215138873
O 5.1655437828299995 1.40399317672 1.25592330873
O 2.66243222103 2.8756485824199998 1.26204754803
O 7.678608576029999 2.85846632742 1.24581946803
O 2.40598482445 5.7225592005 5.87698163621
O 7.422161179450001 5.705376945499999 5.86075355621
O 1.841446398535 1.467049904865 7.99033365326
O 6.857622753535 1.449867649865 7.974105573259999
O 3.240466413825 7.136522681574999 3.36020926842
O 8.256642768825001 7.1193404265749995 3.3439811884199995
O 0.7276943627250001 5.768112135475 3.3701960620199998
O 5.743870717725 5.750929880475 3.35396798202
O 4.354218449634999 2.8354604509650003 7.980346859659999
O 9.370394804635 2.818278195965 7.96411877966
O 4.22018908899 0.00483032328 8.298619786409999
O 9.23636544399 -0.01235193172 8.28239170641
O 0.86373625001 8.59954227772 3.67995588559
O 5.8799126050099995 8.58236002272 3.6637278055899998
O 3.35724587093 4.305033441139999 3.6776707911699997
O 8.37342222593 4.287851186139999 3.66144271117
O 1.72667946807 4.299339159860001 8.30090488083
O 6.742855823070001 4.28215690486 8.284676800829999
