40

Ga -0.0335388064409104 3.5421991051659396 14.499295638550084
Ga 1.5517003614033844 2.636854670004223 2.6144195102140473
Ga 3.0533325614033844 -0.0379793099957771 2.624001045214047
Ga -1.5147963085966154 2.675045125004223 2.501120890214047
Ga 3.087574123787526 1.7323020285798367 0.1446771374858677
In 3.057954880037526 1.7327771048298368 5.793757481235867
Ga -0.0230371898466155 0.0003695037542229 4.393729206464047
Ga -1.5200470712124745 4.4459598985798365 7.5539041074858675
Ga -0.0184148712124744 1.7711259185798367 7.563485642485867
Al 1.546449598787526 4.407769443579837 7.667202727485868
Ga -0.0137926439409104 3.5418823876659395 10.733242076050084
In 3.038208717537526 1.7330938223298367 9.559811043735866
Ga 4.5444631448090895 0.8290163114159399 12.739149012300084
In 3.0428309448090896 3.5038502914159397 12.729567477300083
In 1.4779664748090895 0.86720676641594 12.625850392300084
In -0.0526564335966155 0.0008445800042229 10.042809550214047
O 4.5426616669375255 0.8642418933298371 1.4644569983358677
O 3.1010947549375256 3.4320825141298372 1.4552587247358677
O 1.5988248637375257 0.9009047301298372 1.3556903231358677
O -0.0720076728466155 0.0011549631542229 13.733542041464046
O 0.0351778390590896 3.5410969282659397 1.3934292410500848
O 1.5535019306375255 2.6016290338298376 13.889111526635867
O 2.9950688426375254 0.0337884130298371 13.898309800235868
O 4.497338733837525 2.5649661970298374 13.997878201835867
O 1.4709141429590897 2.6733471761659398 6.403941593150084
O 0.0293472309590898 5.2411877969659395 6.394743319550084
O -1.4729226602409102 2.7100100129659395 6.295174917950084
O 3.068222884537526 1.7326124117298367 3.8354096287358677
O -0.0333051943466155 0.0005341968542229 6.352077058964047
O -1.4392609433409103 4.40946744666594 3.7643818714500843
O 0.0023059686590896 1.8416268258659398 3.7735801450500843
O 1.5045758598590895 4.37280460986594 3.8731485466500843
O -1.6008332904466156 4.4824524047542225 11.343426341064047
O -0.0391358024466156 1.700625065554223 11.353391137464046
O 1.5883232463533847 4.442734331554223 11.461256905864047
O -0.0035246394409104 3.5417176945659397 8.774894223550085
O 3.027940713037526 1.7332585154298368 11.518158896235867
O 4.625249363253385 0.792523805254223 8.949626929364047
O 3.0635518752533843 3.5743511444542233 8.939662132964047
O 1.4360928264533843 0.8322418784542229 8.831796364564047
