80

In 7.191938102500001 2.3943823500000003 7.1713013225
Ga 2.3962571325 7.174242199999999 7.1882553775
Ga 7.1750151975000005 7.190008529999999 2.3909390375
Ga 7.184233042500001 7.182271319999999 7.1787838875
In 2.3870392875000004 7.181979409999999 2.4004105275
In 7.182720257500001 2.40211956 2.3834564725
Ga 2.4039621925 2.38635323 7.1807728125
In 2.3947443475 2.39409044 2.3929279625
Ga 7.1840005940800005 4.46661899004 4.7806113655799995
Al 2.37910177908 9.25421605004 0.00972057058
Al 7.17373486092 5.12550909996 -0.00621585558
In 4.78500935154 7.182651495279999 4.464023757700001
In 0.01395634654 2.37899619528 9.2538575327
Ga -0.00171293154 7.1735701147199995 5.1246421473
Al 4.468515255620001 4.7837662948399995 7.1804224113199995
In 9.254978380619999 0.01164365484 2.3756235063199997
Ga 5.127385039380001 -0.00303071484 7.17165172368
Al 2.39497679592 5.10974276996 4.79110048442
In 7.18143992092 0.33762012996 -0.01369842058
Ga 2.38680683908 4.46632708004 0.00223800558
In 4.79396803846 2.39371026472 5.1076880923
Ga -0.01093077654 7.18130732472 0.3367972973
Al 0.00473850154 2.38673340528 4.4660126827
Al 5.1104621343800005 4.79259546516 2.39128943868
Ga 0.33940912938 -0.01105983484 7.18112321368
Al 4.467002470620001 0.00361453484 2.38509499632
Ga 2.40268185592 0.32185379996 4.78361791942
Ga 4.784750193460001 2.4014474747200003 0.3198432423
Ga 0.32248622438 4.78456634516 2.40076092868
Al 7.17629553408 9.25450796004 4.78809393058
In 4.7942271965400005 7.174914285279999 9.251868607699999
Ga 9.25649116562 4.79179541484 7.17095092132
O 5.94315858412 3.7439340638200003 6.27575916143
O 3.64069099704 8.525059865260001 8.08801770523
O 8.42032880616 5.84336600714 1.48625153497
O 5.94326508768 5.82854446378 8.07925122337
O 6.27947847431 5.94146603002 3.7409464584200003
O 8.09267369027 3.6385610635399996 8.52163839698
O 1.4915149135300003 8.41976575086 5.84180923682
O 8.08377639689 5.94111155558 5.82488553278
O 3.7455182507000004 6.27839496008 5.9393380340999995
O 8.52617249254 8.0903841936 3.63451446054
O 5.84557408686 1.4899833372 8.41740522146
O 5.8301786449 8.082141909119999 5.9380219089
O 3.6358188058800005 5.832427696179999 3.29595268857
O 5.93828639296 1.05130189474 1.48369414477
O 1.15864858384 3.7329957528600004 8.08546031503
O 3.6357123023200004 3.7478172962200005 1.49246062663
O 3.2994989156899996 3.63489572998 5.83076539158
O 1.4863036997300003 5.93780069646 1.05007345302
O 8.08746247647 1.15659600914 3.72990261318
O 1.49520099311 3.63525020442 3.74682631722
O 5.8334591393 3.2979667999199997 3.6323738159
O 1.05280489746 1.4859775664000001 5.93719738946
O 3.7334033031400002 8.0863784228 1.1543066285399999
O 3.7487987451 1.49421985088 3.6336899411
O 1.13825976912 8.531531123819999 1.50486836643
O 8.427154122040001 3.75293722526 3.28321880023
O 3.64927580116 1.03971070714 6.27608530997
O 1.15377639268 1.04036358378 3.2933952983699997
O 1.50842546931 1.13781073002 8.53078023342
O 3.28777487527 8.42615812354 3.75074760198
O 6.27797803853 3.64764311086 1.03701033182
O 3.2942877018899996 1.1529306755800002 1.03902960778
O 8.531981375700001 1.50627232008 1.1345391291
O 3.7551194875400005 3.2867288935999994 8.42434823554
O 1.04067527186 6.2775803971999995 3.64651442646
O 1.0406899499 3.2939610291199997 1.1521659839
O 8.440717620880001 1.04483063618 8.06684348357
O 1.1518232679600002 5.82342453474 6.2884930497700005
O 5.92970158884 8.536651052860002 3.2956265400299998
O 8.425200997320001 8.53599817622 6.278316551630001
O 8.070551920689999 8.438551029980001 1.04093161658
O 6.29120251473 1.15020363646 5.82096424802
O 3.30099935147 5.9287186491399995 8.53470151818
O 6.284689688109999 8.42343108442 8.53268224222
O 1.0469960143 8.07008943992 8.4371727209
O 5.823857902460001 6.2896328664 1.14736361446
O 8.53830211814 3.2987813628 5.92519742354
O 8.538287440100001 6.28240073088 8.4195458661
