80

In 10.91811851251 6.260165e-06 1.2353759035299998
Ga 10.91811411251 3.241942145165 1.2353634335299999
Ga 23.30464840251 1.5145165e-05 1.18817382353
Ga 23.30464400251 3.241951030165 1.18816135353
Ga -0.1961601225100003 -6.235165e-06 4.9529468664700005
Ga -0.1961645225100002 3.241929649835 4.95293439647
Ga 12.19036976749 2.649835e-06 4.905744786470001
In 12.19036536749 3.241938534835 4.90573231647
Ga 4.7248513675099995 1.6209697601650002 1.25897070853
Ga 4.7248469675099996 4.862905645165 1.25895823853
Ga 17.11138125751 1.6209786451650001 1.21176862853
Ga 17.111376857510002 4.862914530165 1.2117561585299998
Ga 5.99710262249 1.620966149835 4.929339591470001
Ga 5.99709822249 4.862902034835 4.92932712147
Ga 18.38363251249 1.620975034835 4.88213751147
Ga 18.38362811249 4.8629109198350005 4.88212504147
In 9.27517338849 1.6209693368250002 4.237866862820001
In 9.27516898849 4.862905221825 4.23785439282
In 21.66170327849 1.6209782218250002 4.190664782820001
In 21.66169887849 4.862914106825 4.19065231282
In 1.4467806015100002 1.6209665731750003 1.95044343718
In 1.44677620151 4.862902458175 1.95043096718
In 13.83331049151 1.6209754581750002 1.90324135718
In 13.83330609151 4.862911343175 1.90322888718
In 3.08191064349 -3.048175e-06 4.2614741378200005
In 3.08190624349 3.241932836825 4.26146166782
In 15.46844053349 5.836825e-06 4.214272057820001
In 15.468436133489998 3.241941721825 4.21425958782
In 7.6400477465100005 3.073175e-06 1.92684863218
In 7.640043346510001 3.241938958175 1.92683616218
In 20.026577636509998 1.1958175e-05 1.87964655218
In 20.026573236509996 3.241947843175 1.87963408218
O 9.51624247353 3.476075e-06 2.68588823929
O 9.51623807353 3.241939361075 2.68587576929
O 21.90277236353 1.2361075e-05 2.63868615929
O 21.90276796353 3.241948246075 2.63867368929
O 1.2057159164699998 -3.451075e-06 3.5024345307099995
O 1.2057115164699999 3.241932433925 3.50242206071
O 13.59224580647 5.433925e-06 3.4552324507099996
O 13.59224140647 3.241941318925 3.4552199807099995
O 3.3229753285300005 1.620966976075 2.70948304429
O 3.3229709285300006 4.862902861075001 2.70947057429
O 15.70950521853 1.6209758610750002 2.66228096429
O 15.709500818530001 4.862911746075 2.66226849429
O 7.398978661469999 1.6209689339250002 3.4788272557099997
O 7.398974261469999 4.862904818925 3.4788147857099996
O 19.785508551470002 1.6209778189250001 3.43162517571
O 19.785504151470004 4.862913703925001 3.4316127057099997
O 8.86128382315 -4.66425e-07 5.5102033797
O 8.86127942315 3.2419354185750002 5.5101909097
O 21.247813713150002 8.418575e-06 5.4630012997
O 21.24780931315 3.241944303575 5.4629888297
O 1.8606745668500002 4.91425e-07 0.6781193903
O 1.8606701668500003 3.2419363764250004 0.6781069203
O 14.24720445685 9.376425e-06 0.6309173103
O 14.24720005685 3.241945261425 0.6309048403
O 2.6680166781500003 1.620963033575 5.5337981847
O 2.6680122781500004 4.8628989185750005 5.5337857147000005
O 15.05454656815 1.620971918575 5.4865961047
O 15.054542168150002 4.862907803575001 5.4865836347
O 8.05393731185 1.620972876425 0.6545121153
O 8.05393291185 4.862908761425 0.6544996453
O 20.44046720185 1.620981761425 0.6073100353
O 20.440462801850003 4.862917646425 0.6072975653
O -1.18723270494 1.6209613950600001 4.63279992023
O -1.1872371049400001 4.86289728006 4.63278745023
O 11.199297185059999 1.62097028006 4.58559784023
O 11.199292785059999 4.86290616506 4.58558537023
O 11.909186694939999 1.6209745149399999 1.55551037977
O 11.909182294939999 4.8629103999400005 1.5554979097700001
O 24.295716584940003 1.62098339994 1.5083082997700001
O 24.295712184940005 4.86291928494 1.50829582977
O 5.0060344400600005 -2.10494e-06 4.60920511523
O 5.006030040060001 3.2419337800600005 4.60919264523
O 17.39256433006 6.78006e-06 4.56200303523
O 17.39255993006 3.2419426650600003 4.56199056523
O 5.71592394994 2.12994e-06 1.57911765477
O 5.71591954994 3.24193801494 1.57910518477
O 18.10245383994 1.101494e-05 1.53191557477
O 18.10244943994 3.2419468999400003 1.53190310477
