80

Al 1.65721000292 7.48152149095 6.534746256529999
In 6.7810592429200005 7.4603990509499996 6.51281293653
In 3.53847012764 1.29800625377 1.83552309585
In 8.66231936764 1.2768838137699998 1.81358977585
Al 0.9838111971600001 3.0827840485099993 1.84273976321
Ga 6.10766043716 3.0616616085099997 1.82080644321
Ga 4.211868933400001 5.6967436962099995 6.527529589169999
Ga 9.3357181734 5.6756212562099995 6.50559626917
Ga 0.9408364580399999 5.775597826699999 -0.01614138684
Ga 6.064685698040001 5.754475386699999 -0.03807470684
Ga 4.23903866196 2.9962615433 4.67965213184
Al 9.36288790196 2.9751391033 4.65771881184
Ga 1.6704957901200002 1.3907046952199997 4.69403462672
Al 6.79434503012 1.3695822552199997 4.67210130672
Ga 3.54949356988 7.400617554779999 9.377492888279999
Al 8.67334280988 7.379495114779999 9.35555956828
Al 0.9019598608800001 0.2793923582999999 9.39436702587
Ga 6.02580910088 0.2582699183 9.37243370587
Al 4.31794927064 8.51189096594 4.65834445559
Al 9.441798510640002 8.490768525939998 4.6364111355899995
In 1.7401983962400003 4.6578220231400005 4.67747941639
Al 6.8640476362400005 4.63669958314 4.65554609639
Al 3.4797107352800003 4.133461301099999 9.37523206507
Al 8.603559975280001 4.112338861099999 9.35329874507
Al 3.5470537316000006 1.3798187232499999 7.3861702755500005
In 8.6709029716 1.35869628325 7.36423695555
Al 1.65584696216 7.403212339869999 2.6775420954299998
Ga 6.779696202159999 7.382089899869999 2.6556087754299997
Al 4.2110813928 5.75896655105 2.6700283989499995
Ga 9.334930632799999 5.73784411105 2.6480950789499995
In 0.99181930096 3.0240645120700003 7.39368397203
Ga 6.115668540960001 3.00294207207 7.37175065203
O 4.307556136720001 5.875864346609999 8.37075672325
O 9.431405376719999 5.85474190661 8.34882340325
O 0.9038487759200001 2.91129284707 3.68745520297
O 6.02769801592 2.89017040707 3.66552188297
O 3.4599464568000005 1.47784506713 3.67949596281
O 8.583795696800001 1.45672262713 3.65756264281
O 1.7514584558400002 7.309312126549999 8.37871596341
O 6.87530769584 7.288189686549999 8.35678264341
O 2.7155764268 0.08020212385 5.90596047645
O 7.8394256667999995 0.05907968385 5.88402715645
O 2.47464816712 8.696678669189998 1.18481859521
O 7.598497407120001 8.675556229189999 1.16288527521
O 5.019235844800001 4.45259077085 1.18279993745
O 10.143085084800003 4.43146833085 1.16086661745
O 0.17098874912 4.32429002219 5.90797913421
O 5.2948379891199995 4.3031675821899995 5.88604581421
O 0.11145772616 7.26578622787 1.12268833673
O 5.23530696616 7.2446637878699995 1.10075501673
O 5.07812503992 1.5107831590899998 5.81756246661
O 10.201974279920002 1.4896607190899998 5.79562914661
O 2.52173960896 2.8739649360699997 5.825670221329999
O 7.645588848960001 2.8528424960699996 5.80373690133
O 2.66784315712 5.90260445089 1.1145805820099999
O 7.79169239712 5.88148201089 1.0926472620099998
O 5.036008261 7.325900364709999 5.96549430502
O 10.159857501000001 7.304777924709999 5.9435609850199995
O 0.15493838924 1.45133076017 1.2946290685000001
O 5.27878762924 1.43020832017 1.2726957485000001
O 2.7229776984400003 2.93392210307 1.2805064741
O 7.8468269384400005 2.91279966307 1.2585731541
O 2.4679689517999996 5.84330902181 5.97961689942
O 7.591818191800001 5.82218658181 5.95768357942
O 1.8905631966799998 1.50238221614 8.136268659899999
O 7.014412436680001 1.48125977614 8.1143353399
O 3.3186755470000002 7.283723982019998 3.4139103607399996
O 8.442524787 7.262601542019998 3.3919770407399996
O 0.7509959254 5.88896514282 3.42784731194
O 5.8748451654 5.86784270282 3.40591399194
O 4.4582428182800005 2.8971410553399997 8.122331708699999
O 9.582092058279999 2.87601861534 8.1003983887
O 4.319676749399999 0.00864148253 8.44886027316
O 9.443525989400001 -0.01248095747 8.42692695316
O 0.8922897626000001 8.77878819147 3.74106388784
O 6.016139002599999 8.75766575147 3.71913056784
O 3.4363019401200003 4.394168287209999 3.7393422592000003
O 8.560151180120002 4.373045847209999 3.7174089392000003
O 1.7756645718800002 4.39326138679 8.4505819018
O 6.89951381188 4.37213894679 8.4286485818
