80

Ga 1.71908965873 7.679469083079999 6.678132728779999
Ga 6.979813998730001 7.652019418079999 6.648408938779999
Ga 3.63707430335 1.3294002330999999 1.87218097902
Ga 8.89779864335 1.3019505680999999 1.8424571890199999
Ga 1.01615262557 3.16315637154 1.8815184487399998
Ga 6.27687696557 3.13570670654 1.85179465874
Ga 4.340011336510001 5.845712944640001 6.668795259059999
Ga 9.60073567651 5.81826327964 6.639071469059999
Ga 0.9724213592400001 5.923703338225 -0.02331596353
Ga 6.2331456992400005 5.896253673225 -0.05303975353
Ga 4.362277750760001 3.0735914517750005 4.78021788353
Ga 9.62300209076 3.0461417867750002 4.7504940935299995
Ga 1.7233163205200002 1.4294659857949998 4.80011192829
Ga 6.98404066052 1.4020163207949998 4.7703881382899995
Ga 3.6658621094800004 7.597205774205 9.58473869171
Ga 8.926586449480002 7.569756109205 9.555014901709999
Ga 0.9396285831000001 0.29503772841 9.612506695379999
Ga 6.2003529231 0.26758806341 9.582782905379998
Ga 4.44944088826 8.731575277649998 4.75308802722
Ga 9.710165228260001 8.704125612649998 4.723364237219999
Ga 1.7985152698600002 4.78087548335 4.77998332382
Ga 7.0592396098600005 4.75342581835 4.7502595338199995
Ga 3.5905542015000003 4.24573752271 9.58561139878
Ga 8.8512785415 4.218287857709999 9.555887608779999
In 3.6538088100100006 1.418895442155 7.5525410942699995
In 8.91453315001 1.391445777155 7.52281730427
In 1.71216142967 7.595261728624999 2.7308033795299997
In 6.97288576967 7.5678120636249995 2.7010795895299995
In 4.333830869210001 5.905666485705 2.7210283315699995
In 9.59455520921 5.878216820704999 2.6913045415699997
In 1.0321393704700002 3.108490685075 7.562316142229999
In 6.292863710470001 3.0810410200750002 7.53259235223
O 4.4410562992100004 6.031205305855 8.554820927029999
O 9.70178063921 6.003755640854999 8.525097137029999
O 0.9364635563100001 2.9891797825649995 3.7696486711699997
O 6.197187896310001 2.9617301175649997 3.73992488117
O 3.5592546384900006 1.515825882925 3.75921725585
O 8.819978978490001 1.488376217925 3.72949346585
O 1.81826521703 7.504559205494999 8.56525234235
O 7.07898955703 7.477109540494999 8.53552855235
O 2.7965683867700006 0.085157543735 6.04012860479
O 8.057292726770001 0.057707878735 6.010404814789999
O 2.55218638779 8.919716504525 1.20078407981
O 7.812910727790001 8.892266839525002 1.17106028981
O 5.16002223477 4.5631446944850005 1.19910422929
O 10.420746574770002 4.535695029485001 1.16938043929
O 0.18873253979 4.441729353774999 6.04180845531
O 5.44945687979 4.414279688774999 6.01208466531
O 0.12415279879 7.454459155585 1.1419186105699999
O 5.384877138789999 7.427009490584999 1.1121948205699999
O 5.22373030665 1.5499448611549997 5.944946894829999
O 10.484454646650002 1.5224951961549997 5.91522310483
O 2.60056534359 2.9512183130350005 5.955597099269999
O 7.861289683590001 2.9237686480350003 5.925873309269999
O 2.7473177618500007 6.053185703705001 1.1312684061299998
O 8.00804210185 6.025736038705001 1.1015446161299998
O 5.187205681490001 7.515458167429999 6.09090363232
O 10.44793002149 7.48800850243 6.06117984232
O 0.16252972083 1.4899446662900002 1.32331212888
O 5.42325406083 1.4624950012900002 1.29358833888
O 2.80083685953 3.0079293486900003 1.30380096508
O 8.06156119953 2.98047968369 1.27407717508
O 2.54889854279 5.9974734850299996 6.11041479612
O 7.80962288279 5.97002382003 6.0806910061199995
O 1.9542455465600002 1.547240641855 8.322424017209999
O 7.214969886560001 1.519790976855 8.29270022721
O 3.4203324256800003 7.471558090185 3.48213635119
O 8.68105676568 7.444108425185 3.4524125611899996
O 0.7824926380800001 6.043673967485001 3.5013740285899995
O 6.04321697808 6.016224302485001 3.4716502385899997
O 4.59208533416 2.9751247645550003 8.303186339809999
O 9.852809674160001 2.947675099555 8.273462549809999
O 4.44704367135 0.01250140903 8.64027739292
O 9.707768011350002 -0.01494825597 8.61055360292
O 0.9312388946500001 9.00829495697 3.81898348708
O 6.19196323465 8.98084529197 3.78925969708
O 3.5383269798700003 4.5075622514099996 3.8177412148
O 8.799051319870001 4.48011258641 3.7880174248
O 1.83995558613 4.51323411459 8.641519665199999
O 7.1006799261300015 4.48578444959 8.6117958752
