80

Al 1.66314915559 7.555258158359999 6.591430056279999
In 6.84446456559 7.541591288359999 6.57035153628
Ga 3.57578801777 1.3158770406199998 1.8523493351
Al 8.75710342777 1.3022101706199998 1.8312708151
Al 0.98981357975 3.11335186024 1.85849324276
Al 6.17112898975 3.0996849902399997 1.83741472276
Al 4.24912359361 5.75778333874 6.585286148619999
In 9.43043900361 5.744116468740001 6.564207628619999
Al 0.94271085281 5.830434972249999 -0.01809058894
In 6.124026262809999 5.816768102249999 -0.03916910894
In 4.281049267189999 3.03177980275 4.72168303394
Ga 9.46236467719 3.01811293275 4.70060451394
Al 1.68612561603 1.4075339567099998 4.73622598122
In 6.86744102603 1.3938670867099998 4.71514746122
Al 3.57615494397 7.477321488289999 9.460226733779999
Al 8.75747035397 7.46365461829 9.43914821378
Al 0.90963844314 0.2862588344699999 9.47917344327
Al 6.090953853139999 0.2725919644699999 9.45809492327
In 4.352565075979999 8.59855132919 4.69829355119
In 9.53388048598 8.584884459189999 4.677215031189999
Al 1.7517061953800002 4.704977787789999 4.71840684599
In 6.9330216053800005 4.691310917789999 4.69732832599
Al 3.51049732374 4.179832375869999 9.45906014847
In 8.69181273374 4.16616550587 9.43798162847
Al 3.5831566070600003 1.4001925270099997 7.4530260566
Al 8.764472017060001 1.3865256570099997 7.4319475366
In 1.6627142455 7.475017992569998 2.6994681833799996
Ga 6.844029655499999 7.461351122569998 2.6783896633799995
Al 4.249059635359999 5.8193761539099995 2.692976129
Al 9.43037504536 5.80570928391 2.6718976089999997
In 0.9968112172 3.05583436567 7.45951811098
Al 6.1781266272 3.0421674956699998 7.43843959098
O 4.34521965162 5.9392797994699995 8.4450932433
O 9.526535061619999 5.925612929469999 8.4240147233
O 0.90881753422 2.94073054215 3.71988737392
O 6.09013294422 2.92706367215 3.69880885392
O 3.49571935184 1.49783817493 3.71287309946
O 8.67703476184 1.48417130493 3.69179457946
O 1.758317834 7.382172166689999 8.45210751776
O 6.9396332439999995 7.3685052966899995 8.43102899776
O 2.7446286074199997 0.08684692647 5.9597470543
O 7.92594401742 0.07318005647 5.9386685343
O 2.4890697861 8.781209141389999 1.19300334036
O 7.6703851961 8.767542271389999 1.17192482036
O 5.06855256692 4.50165715497 1.1929520003
O 10.249867976920001 4.4879902849699995 1.1718734803
O 0.1651458266 4.366398912889999 5.95979839436
O 5.3464612366 4.35273204289 5.938719874359999
O 0.10155427762 7.333526721389999 1.1303250812799999
O 5.282869687619999 7.319859851389999 1.10924656128
O 5.13152778886 1.5341670957499998 5.87053954906
O 10.31284319886 1.5205002257499998 5.8494610290599995
O 2.54444049532 2.9061429724899996 5.87772789688
O 7.72575590532 2.8924761024899994 5.85664937688
O 2.6886415711600002 5.961550844649999 1.12313673346
O 7.869956981159999 5.947883974649999 1.1020582134599999
O 5.0801736683900005 7.403069243669999 6.017787623869999
O 10.261489078389998 7.389402373669999 5.99670910387
O 0.15421809305 1.46539435625 1.30583425565
O 5.33553350305 1.45172748625 1.2847557356500001
O 2.74881716135 2.9655363439499998 1.29159593675
O 7.93013257135 2.95186947395 1.27051741675
O 2.48557460009 5.902927255969999 6.03202594277
O 7.66689001009 5.889260385969999 6.01094742277
O 1.90775492735 1.52164850285 8.2095085892
O 7.08907033735 1.50798163285 8.188430069199999
O 3.34420215473 7.357139242589999 3.4428575734399995
O 8.525517564729999 7.343472372589999 3.42177905344
O 0.74983493133 5.94564286799 3.4568783006399997
O 5.93115034133 5.9319759979899995 3.4357997806399996
O 4.50212215075 2.9331448774499997 8.195487862
O 9.683437560749999 2.91947800745 8.174409341999999
O 4.366271263249999 0.01781566099 8.52593084111
O 9.547586673250002 0.00414879099 8.50485232111
O 0.88830520875 8.86251165001 3.77194981989
O 6.06962061875 8.84884478001 3.75087129989
O 3.46741703773 4.44112668263 3.77224662655
O 8.648732447729998 4.4274598126299995 3.75116810655
O 1.7871594342700001 4.439200628369999 8.52563403445
O 6.96847484427 4.425533758369999 8.504555514449999
