80

Al -0.06866188 -0.037220165 5.9108256775
Ga -0.20598564 -0.111660495 17.7324770325
Ga 4.476178175 2.816974255 5.9806720125
Ga 4.338854415 2.7425339249999996 17.8023233675
Al 3.027809885 0.07783702 5.9475286025
Al 2.890486125 0.00339669 17.7691799575
Al 1.3797064099999998 2.70191707 5.9439690875
Ga 1.24238265 2.6274767399999996 17.7656204425
Al 0.0 0.0 0.0
Al -0.13732376 -0.07444033 11.821651355
Al 4.544840055 2.85419442 0.069846335
Al 4.407516295 2.77975409 11.89149769
Ga 3.096471765 0.115057185 0.036702925
Al 2.959148005 0.040616855 11.85835428
Al 1.44836829 2.739137235 0.03314341
Al 1.31104453 2.664696905 11.854794765
Al -0.1009026771605001 1.7689502385904998 2.9652731509535
Al -0.2382264371605001 1.6945099085904998 14.7869245059535
Ga -1.7490061521605003 4.3930302885904995 2.9617136359535
Al -1.8863299121605002 4.3185899585905 14.7833649909535
In 2.9955690878395003 1.8840074235904998 3.0019760759535
Al 2.8582453278395 1.8095670935904997 14.8236274309535
Al 1.3474656128395 4.508087473590499 2.9984165609535
Al 1.2101418528395 4.433647143590499 14.8200679159535
Ga 1.4119472071604997 0.8957466664094998 8.889521614046501
Al 1.2746234471604998 0.8213063364094998 20.7111729690465
Al -0.2361562678395003 3.5198267164095 8.8859620990465
Ga -0.3734800278395003 3.4453863864094996 20.707613454046502
Al 4.5084189721605 1.0108038514094997 8.9262245390465
Al 4.3710952121605 0.9363635214094997 20.7478758940465
Ga 2.8603154971605003 3.6348839014095 8.9226650240465
Ga 2.7229917371605 3.5604435714094995 20.7443163790465
O -0.1234100414245001 1.7567494685035 4.902841808038
O -0.2607338014245001 1.6823091385034998 16.724493163037998
O -1.7715135164245002 4.3808295185035 4.899282293038
O -1.9088372764245003 4.3063891885035 16.720933648038
O 2.9730617235755 1.8718066535034998 4.939544733038
O 2.8357379635755002 1.7973663235034998 16.761196088037998
O 1.3249582485755 4.4958867035034995 4.935985218038
O 1.1876344885755 4.4214463735035 16.757636573038
O 1.4344545714244998 0.9079474364964998 6.951952956962
O 1.2971308114244997 0.8335071064964998 18.773604311962
O -0.2136489035755003 3.5320274864965 6.948393441962
O -0.3509726635755003 3.4575871564964995 18.770044796962
O 4.5309263364245 1.0230046214964998 6.988655881962
O 4.393602576424501 0.9485642914964998 18.810307236962
O 2.8828228614245 3.6470846714964997 6.985096366962
O 2.7454991014245 3.5726443414964995 18.806747721962
O 1.3894398428964998 0.8835458963224998 10.827090271131
O 1.2521160828965 0.8091055663224999 22.648741626131
O -0.2586636321035003 3.5076259463225 10.823530756131001
O -0.3959873921035003 3.4331856163224996 22.645182111131
O 4.4859116078965 0.9986030813224998 10.863793196131
O 4.3485878478965 0.9241627513224998 22.685444551131
O 2.8378081328965004 3.6226831313225 10.860233681131001
O 2.7004843728965002 3.5482428013224996 22.681885036131
O -0.0783953128965001 1.7811510086774998 1.0277044938689999
O -0.2157190728965001 1.7067106786774997 12.849355848869001
O -1.7264987878965001 4.4052310586775 1.024144978869
O -1.8638225478965003 4.3307907286775 12.845796333869002
O 3.0180764521035 1.8962081936774997 1.064407418869
O 2.8807526921035 1.8217678636774997 12.886058773869001
O 1.3699729771035 4.520288243677499 1.060847903869
O 1.2326492171035 4.4458479136774995 12.882499258869
O -0.03433094 -0.0186100825 2.95541283875
O -0.1716547 -0.0930504125 14.77706419375
O 4.510509115 2.8355843375 3.02525917375
O 4.3731853549999995 2.7611440075 14.84691052875
O 3.062140825 0.0964471025 2.99211576375
O 2.924817065 0.0220067725 14.81376711875
O 1.4140373499999999 2.7205271525 2.98855624875
O 1.27671359 2.6460868225 14.81020760375
O -0.10299282 -0.0558302475 8.86623851625
O -0.24031658 -0.1302705775 20.68788987125
O 4.441847235 2.7983641725 8.93608485125
O 4.304523475 2.7239238424999996 20.75773620625
O 2.993478945 0.0592269375 8.90294144125
O 2.856155185 -0.0152133925 20.72459279625
O 1.3453754699999998 2.6833069875 8.89938192625
O 1.20805171 2.6088666574999997 20.72103328125
