80

Ga 1.62880965824 7.355582906129999 6.441423554469999
Al 6.66142253324 7.3321959211299985 6.422038494469999
Ga 3.4753595655 1.2740735242099996 1.8101678831699999
Al 8.5079724405 1.2506865392099997 1.79078282317
Al 0.96710987174 3.0312464472699996 1.8172293369099999
Al 5.99972274674 3.0078594622699995 1.79784427691
Al 4.137059352 5.59840998307 6.43436210073
Ga 9.169672227 5.57502299807 6.414977040729999
Al 0.9270819490849999 5.681583359924999 -0.01204046128
Al 5.959694824085 5.658196374925 -0.03142552128
Al 4.163129150914999 2.9427597400749996 4.612740801279999
Ga 9.195742025915001 2.919372755075 4.59335574128
Ga 1.6394838973349999 1.3645115730549997 4.6248299552
In 6.672096772334999 1.3411245880549998 4.6054448952
Ga 3.486153912665 7.273317136945 9.2420914448
Ga 8.518766787665 7.249930151945 9.222706384799999
Al 0.88206679239 0.26877272931 9.25330739496
Al 5.91467966739 0.24538574431 9.233922334959999
Ga 4.243500164189999 8.36902900947 4.59508156292
Ga 9.276113039190001 8.34564202447 4.57569650292
Al 1.70964438389 4.578688098769999 4.61050515012
Al 6.7422572588900005 4.55530111377 4.5911200901199996
Al 3.41592257269 4.05911364001 9.23788380776
Ga 8.448535447689999 4.0357266550099995 9.21849874776
Al 3.4814825647350003 1.3512280933049998 7.27719226271
Al 8.514095439734998 1.327841108305 7.25780720271
Ga 1.629063466805 7.280855746834999 2.6423189657299995
Ga 6.661676341805 7.257468761834999 2.6229339057299996
Al 4.137951318485 5.6619386202549995 2.6350491099099997
Ga 9.170564193485 5.638551635254999 2.6156640499099995
Al 0.9725947130549999 2.970145219885 7.28446211853
In 6.005207588055001 2.946758234885 7.26507705853
O 4.2303551034349995 5.773475329485 8.24995137987
O 9.262967978434999 5.7500883444849995 8.23056631987
O 0.8877013906250001 2.861467459975 3.63399871329
O 5.920314265625 2.838080474975 3.6146136532899997
O 3.397546479185 1.449934028115 3.62641625435
O 8.430159354185001 1.4265470431149998 3.6070311943499997
O 1.720510014875 7.185008761344998 8.25753383881
O 6.753122889874999 7.161621776344998 8.23814877881
O 2.6647641237950004 0.073973167085 5.818158664069999
O 7.697376998795 0.050586182085 5.79877360407
O 2.434587067385 8.553849220295 1.17322670941
O 7.467199942385 8.530462235295 1.15384164941
O 4.9316689975450005 4.377199858835 1.16981229207
O 9.964281872545001 4.3538128738349995 1.15042723207
O 0.167682193635 4.250622528544999 5.8215730814099995
O 5.200295068635 4.227235543544999 5.80218802141
O 0.112760612525 7.147377434595 1.11015018985
O 5.145373487525 7.1239904495949995 1.0907651298499998
O 4.986023751295 1.4802291830249996 5.73297564667
O 10.018636626295 1.4568421980249997 5.71359058667
O 2.4758595837749997 2.8226347166449997 5.74066230665
O 7.5084724587750005 2.7992477316449995 5.72127724665
O 2.622924780045 5.8049719009750005 1.1024635298699998
O 7.655537655045 5.781584915975 1.08307846987
O 4.94760582193 7.201096048559998 5.882130774409999
O 9.980218696929999 7.177709063559999 5.86274571441
O 0.15238305003 1.4269690797999999 1.27604657815
O 5.18499592503 1.4035820948 1.25666151815
O 2.67546991543 2.8842434249 1.26413977605
O 7.70808279043 2.8608564399 1.24475471605
O 2.4245189565299996 5.74382170346 5.89403757651
O 7.45713183153 5.72043471846 5.874652516509999
O 1.854233206635 1.472203674275 8.0153351592
O 6.8868460816349995 1.4488166892749998 7.9959500992
O 3.2619102450849997 7.162010892244999 3.3682389967199997
O 8.294523120085001 7.138623907244999 3.34885393672
O 0.7392222283850001 5.791146419945 3.3800155475199998
O 5.7718351033849995 5.767759434945 3.36063048752
O 4.376921223335 2.843068146575 8.003558608399999
O 9.409534098335 2.8196811615749997 7.984173548399999
O 4.239188287369999 0.00122651682 8.323380018709999
O 9.27180116237 -0.02216046818 8.30399495871
O 0.87936418063 8.63390507118 3.69029716929
O 5.9119770556299995 8.610518086179999 3.67091210929
O 3.3758079528700002 4.318999913239999 3.68709115403
O 8.408420827869998 4.295612928239999 3.66770609403
O 1.74274451513 4.316131674759999 8.326586033969999
O 6.775357390130001 4.292744689759999 8.30720097397
