40

In 3.3805048064743186 -0.0033057406643674 3.0034542673528764
Ga 6.715643013525681 -0.0338493693356326 11.474477162647124
Ga -0.0151221325 -0.00907929625 1.8225229725
Al -0.1058549275 -0.06355507375 12.7576608075
Al 6.791253676025681 0.0115471119143674 2.361862300147124
Al 3.3048941439743187 -0.0487022219143674 12.116069129852876
In 11.02313182397432 1.5083435430856327 4.756827919852876
Al 9.279951856025681 1.4782188769143674 9.633931045147124
Ga 4.171389416025681 1.4604792469143673 9.685057220147124
Ga 5.914569383974318 1.4906039130856326 4.807954094852876
Ga 6.74588737948716 -0.0156907772071837 7.829431362426439
Ga 3.3502604405128404 -0.0214643327928163 6.648500067573562
Al -0.06048853 -0.036317185 7.29009189
Ga 5.10856244 0.01773963 -0.051126175
Ga 2.54918671 1.50298895 -0.018023145
In 7.65774915 1.5207285799999999 -0.06914932
O 5.146230746087159 -0.0003034915071837 3.617538442226438
O 4.949917073912841 -0.0368516184928163 10.860392987773562
O 3.3962318254840893 0.0061367281619763 1.1080302301510385
O 6.69991599451591 -0.0432918381619763 13.369901199848963
O 7.593449885515912 1.4425659001380238 3.6002362240489614
O 2.492916475284089 1.388987729061976 10.892171895551039
O 7.60107135448409 1.5262568898619762 10.841648915951039
O 12.701604764715912 1.5798350609380238 3.5497132444489616
O -0.0308491503 -0.01852176435 3.7179468639000004
O -0.0901279097 -0.05411260565 10.8622369161
O 8.43627680788716 0.0233977145928163 1.106186447626438
O 1.6598710121128408 -0.0605528245928163 13.371744982373562
O 11.08743098628716 1.5865062225928164 1.087442376826438
O 9.215245235084089 1.5195857285619763 13.303919782551038
O 4.10709025371284 1.3823165674071836 13.354442763173562
O 5.979276004915911 1.4492370614380237 1.1379653574489617
O 8.511613319099999 -0.01268852805 8.4435155373
O 1.5845345009 -0.02446658195 6.0344158927
O 6.761614296325681 -0.0062483087356326 5.934007326247125
O 3.334533523674319 -0.0309068012643674 8.543924103752877
O 10.958832560699998 1.43018086395 8.4262133181
O 9.3446586801 1.4368520252499999 5.9639424514999995
O 4.2356886793 1.53864192605 6.0156718219
O 5.849862559900001 1.53197076475 8.477942688499999
