40

In 0.99186038131 6.154179679240001 -0.03234093293
In 4.543106368689999 3.21476489076 4.95122467293
Al 1.79363090001 1.49728125764 4.9740066570499994
In 3.74133584999 7.87166331236 -0.05512291705
In 3.80957742201 1.4975727328200001 7.82734332241
In 1.75748669623 7.8962337173 2.82036030963
In 4.50224558251 6.1523904088200005 2.8126906721099996
Ga 1.06481853573 3.241416041300001 7.83501295993
In 1.7640325884399999 7.98885465394 6.912139364719999
Al 3.792966152999999 1.39715538778 1.93907022452
In 1.04841122704 3.2906776991399997 1.94608635516
In 4.5085875144 6.095332342580001 6.9051232340799995
In 0.97928092164 0.32263303062 9.96418701606
Al 4.611492750839999 9.08953829262 4.91525813902
In 1.85875391704 4.977190613420001 4.948496233219999
In 3.73201975544 4.43498070982 9.930948921859999
O 4.613204959209999 6.290790472060001 8.85996968637
O 0.96571393615 3.1121984146200004 3.90360470719
O 3.7107787629099995 1.5928736104600003 3.89495480935
O 1.86814013245 7.81011527622 8.86861958421
O 2.9197740489700004 0.10742241014 6.261351041969999
O 2.6296197411099995 9.2726970119 1.23250749271
O 5.37060536147 4.75979215014 1.2369277324699999
O 0.17878842861 4.620327271900001 6.256930802209999
O 5.38674092228 7.831571293640001 6.30379006186
O 0.16365940548 1.5493277692400003 1.3697178771
O 2.91295640888 3.1358422748400008 1.3475077115
O 2.6374439188799994 6.245056788040001 6.32600022746
O 0.09972226675 7.741659633340001 1.17340708115
O 5.448776823169999 1.63776677462 6.16076309417
O 2.70361001625 3.0822520773400006 6.169739745449999
O 2.84488907367 6.297174330620001 1.16443042987
O 2.03402053041 1.6250872148800002 8.62516641485
O 3.54187875191 7.77556274928 3.59945976587
O 0.7927092237100001 6.282597620480001 3.6212614896699997
O 4.78319005861 3.1180523436800005 8.60336469105
O 4.6435408661199995 0.04194174688 8.95690352266
O 0.93616089188 9.361653527120001 3.94639818534
O 3.67694255192 4.699069662480001 3.95147193198
O 1.90275920608 4.704525611519999 8.95182977602
