40

In 0.9997668278799999 6.1865311296800005 -0.03398065486
In 4.57039735212 3.2309501753200003 4.97269989486
Ga 1.8055715654 1.5054939734000001 4.9968786424600005
In 3.7645926146000006 7.911987331600001 -0.05815940246
In 3.8332476573700003 1.50550278537 7.8631454971200005
In 1.77122196555 7.938112469850001 2.83176821152
In 4.5298246001699995 6.183809921170001 2.82341395692
In 1.07464502275 3.25980533405 7.871499751720001
In 1.7792900218099998 8.032047714710002 6.94309139354
In 3.8144217967099996 1.4033722251100003 1.9467439103000002
Ga 1.0560882713700002 3.30815082787 1.9544138625000003
Ga 4.537623547150001 6.1272691119500005 6.93542144134
In 0.9881520204 0.32594041275 10.01142216492
In 4.64165820844 9.13697936319 4.935454008360001
In 1.8725266732399999 5.003906295990001 4.9705815943600005
Al 3.7572835556000004 4.45901347995 9.976294578920001
O 4.643572842449999 6.324117341150001 8.899541366720001
O 0.97356708343 3.1291501744300008 3.9213535742400003
O 3.7325733819700004 1.6005617068700002 3.91197286604
O 1.88456654391 7.85270580871 8.908922074920001
O 2.93756150529 0.10801151379 6.29023654984
O 2.6480221943499997 9.32121640995 1.23576173704
O 5.40164630729 4.783106860790001 1.2400670768400002
O 0.18393739235 4.64612106295 6.28593121004
O 5.4209797029099995 7.872261103960001 6.330582871300001
O 0.16567977717 1.5577863513200003 1.37592325606
O 2.93027009327 3.1515760059200004 1.3523432730600002
O 2.6563893868100004 6.2784714493600005 6.3541628543
O 0.10399315199 7.78308956579 1.17755465816
O 5.48063429837 1.6454098854699999 6.18799221496
O 2.72149344519 3.0987603259900007 6.1977150743600005
O 2.86313400517 6.329739125270001 1.16783179876
O 2.04858608204 1.63461334834 8.66538676382
O 3.56532650252 7.81619557262 3.6139846557
O 0.8009043797200002 6.316453451820001 3.6371369497
O 4.813008204839999 3.1343554691400004 8.64223446982
O 4.67142012349 0.04199053214 8.99808015566
O 0.94655652051 9.41191439686 3.9632097723400004
O 3.69991152417 4.72332879362 3.9681994145400004
O 1.91806511983 4.730576135380001 8.99309051346
