80

Ga 7.132711935000001 2.3753633374999996 7.1100494675
Ga 2.3761709650000005 7.114276942499999 7.1280521625
In 7.114024240000001 7.1310605475 2.3699303875
Al 7.12410306 7.123157497499999 7.1177280075
Ga 2.3660921450000005 7.1221799925 2.3802545425
Ga 7.122633115000001 2.3832663874999995 2.3622518475
In 2.38477984 2.3664827825 7.1203736225
Al 2.3747010200000003 2.3743858325 2.3725760025000002
In 7.123953491000002 4.430361939619999 4.73946778678
Ga 2.3573337010000004 9.177178594619999 0.00967286178
Al 7.112703864000001 5.08396499538 -0.00728555178
In 4.74441224274 7.1232061524 4.426141036840001
Ga 0.01516784274 2.3586283874 9.17658427184
In -0.00214913274 7.1132507826 5.08216566816
Al 4.43158206754 4.744216262259999 7.11975285754
Ga 9.17804421754 0.01320570726 2.35395254254
Ga 5.08590970746 -0.00237014226 7.11067023246
Ga 2.3748505890000002 5.067181390379999 4.75083622322
Al 7.121312739000001 0.33617083538 -0.01496409178
Al 2.365942576 4.429384434619999 0.00199432178
In 4.75439183726 2.3743371776 5.06416297316
In -0.01222795274 7.121153832599999 0.33436804816
In 0.00508902274 2.3665314374 4.42878665184
In 5.06722201246 4.75332706774 2.37055115246
Ga 0.3379776124600001 -0.01125069726 7.12099438746
Al 4.430112122540001 0.00432515226 2.36427669754
Al 2.383459464 0.3193872303799999 4.74315768322
Al 4.7443130172600005 2.3822402276 0.31636535316
Al 0.3192899174600001 4.74444651274 2.38087530746
Al 7.115344616000002 9.178156099619999 4.74714632678
Al 4.75449106274 7.1153031023999995 9.173938656839999
Ga 9.17951416254 4.753096817259999 7.10942870254
O 5.893927069390001 3.71341811972 6.22231314352
O 3.61010042511 8.45397806652 8.02011918304
O 8.349019469289999 5.79597731208 1.47249480636
O 5.89396323621 5.7804848266799995 8.01083289208
O 6.22649354088 5.89273586146 3.70875383708
O 8.025927088599998 3.6092307033399997 8.4489838756
O 1.4784791964000001 8.34926253986 5.7931105952
O 8.01611037412 5.89262922034 5.77491171712
O 3.7140857910900005 6.22625074993 5.8892698040700004
O 8.45394311549 8.024095373089999 3.60288992251
O 5.798034045910001 1.47821892591 8.345944694890001
O 5.780947247510001 8.015293276069999 5.88765560353
O 3.6048770106100005 5.784125210279999 3.26799086648
O 5.8887036548900005 1.0435652634800001 1.47018482696
O 1.14978461071 3.70156601792 8.01780920364
O 3.6048408437900004 3.7170585033199997 1.47947111792
O 3.2723105391200003 3.60480746854 5.78155017292
O 1.4728769914000002 5.88831262666 1.0413201344
O 8.0203248836 1.1482807901399998 3.6971934148
O 1.48269370588 3.60491410966 3.7153922928800003
O 5.784718288910001 3.27129258007 3.60103420593
O 1.0448609645100002 1.47344795691 5.88741408749
O 3.7007700340900005 8.019324404089998 1.14435931511
O 3.7178568324900008 1.4822500539299999 3.60264840647
O 1.12730727939 8.460234774719998 1.49251821852
O 8.35656257511 3.72296751152 3.25431886804
O 3.61977506929 1.03139954708 6.22293804136
O 1.1445611962100002 1.03171316168 3.26568088708
O 1.4972491408800002 1.12815809646 8.45919707208
O 3.2593072986 8.356047358340001 3.7191889506
O 6.2249413464000005 3.6182519848599997 1.0273102802
O 3.2667083341199996 1.1438575553399999 1.02975971212
O 8.46054794109 1.49524019493 1.1234694890699999
O 3.7246987154900006 3.2595176080899995 8.35333315751
O 1.0314142559100001 6.22503558091 3.6161497698900003
O 1.0315452075100002 3.2665216110699995 1.14250359853
O 8.37149680061 1.0373085552799999 7.99778579148
O 1.1422415048900003 5.77457581848 6.2359851419600005
O 5.87902901071 8.46614378292 3.2673659686399996
O 8.35424288379 8.46583016832 6.224623122920001
O 8.00155493912 8.369385233540001 1.03110693792
O 6.239496781400001 1.14149597166 5.7711150594
O 3.2738627336 5.8792913451399995 8.4629937298
O 6.232095745880001 8.35368577466 8.46054429788
O 1.03825613891 8.00230313507 8.36683452093
O 5.7741053645100004 6.238025721910001 1.13697085249
O 8.46738982409 3.2725077490899994 5.87415424011
O 8.467258872490001 6.23102171893 8.34780041147
