80

Al -0.07793403 -0.04076645 5.877180005
Al -0.23380209 -0.12229935 17.631540015
Al 4.38859904 2.8383673600000003 5.9557024599999995
Al 4.2327309799999995 2.7568344600000003 17.71006247
Al 2.9866564749999998 0.109351205 5.918929909999999
Ga 2.830788415 0.027818305 17.67328992
Al 1.324008535 2.688249705 5.913952555
Al 1.168140475 2.606716805 17.668312564999997
Al 0.0 0.0 0.0
Al -0.15586806 -0.0815329 11.75436001
Al 4.46653307 2.8791338100000003 0.078522455
Al 4.310665009999999 2.7976009100000003 11.832882464999999
Al 3.064590505 0.150117655 0.041749905
Al 2.908722445 0.068584755 11.796109914999999
Al 1.401942565 2.729016155 0.03677255
Al 1.246074505 2.647483255 11.79113256
Ga -0.1258601164875001 1.7487447295115002 2.9491873409935
Al -0.2817281764875001 1.6672118295115002 14.7035473509935
Ga -1.7885080564875004 4.327643229511501 2.9442099859934996
Ga -1.9443761164875004 4.246110329511501 14.698569995993498
Al 2.9387303885124996 1.8988623845115 2.9909372459935
Ga 2.7828623285124996 1.8173294845115 14.7452972559935
Al 1.276082448512499 4.4777608845115004 2.9859598909934997
Al 1.120214388512499 4.3962279845115 14.7403199009935
Al 1.3719346214874997 0.8987385254885 8.841945219006499
Al 1.2160665614874997 0.8172056254885 20.5963052290065
Al -0.2907133185125 3.4776370254885003 8.8369678640065
Al -0.4465813785125001 3.3961041254885003 20.5913278740065
Ga 4.436525126487501 1.0488561804885002 8.883695124006499
Ga 4.2806570664875006 0.9673232804885001 20.6380551340065
Al 2.7738771864875007 3.6277546804885 8.8787177690065
Al 2.6180091264875007 3.5462217804885 20.6330777790065
O -0.1514068915215001 1.7353814872015 4.8757269466325
O -0.3072749515215001 1.6538485872015 16.6300869566325
O -1.8140548315215004 4.3142799872015 4.870749591632499
O -1.9699228915215004 4.2327470872015 16.6251096016325
O 2.9131836134784996 1.8854991422015 4.917476851632499
O 2.7573155534784997 1.8039662422015 16.6718368616325
O 1.2505356734784991 4.4643976422015 4.9124994966325
O 1.0946676134784992 4.3828647422015 16.6668595066325
O 1.3974813965214998 0.9121017677984999 6.915405613367499
O 1.2416133365214999 0.8305688677984999 18.6697656233675
O -0.2651665434785 3.4910002677985 6.910428258367499
O -0.4210346034785001 3.4094673677985 18.6647882683675
O 4.462071901521501 1.0622194227985002 6.957155518367499
O 4.3062038415215005 0.9806865227985001 18.7115155283675
O 2.7994239615215006 3.6411179227984998 6.952178163367499
O 2.6435559015215007 3.5595850227984998 18.7065381733675
O 1.3463878464534997 0.8853752831785 10.7684848246455
O 1.1905197864534998 0.8038423831785 22.522844834645497
O -0.3162600935465001 3.4642737831785 10.7635074696455
O -0.4721281535465001 3.3827408831785 22.5178674796455
O 4.410978351453501 1.0354929381785 10.810234729645499
O 4.255110291453501 0.9539600381785002 22.564594739645496
O 2.7483304114535008 3.6143914381785 10.8052573746455
O 2.592462351453501 3.5328585381785 22.5596173846455
O -0.1003133414535001 1.7621079718215003 1.0226477353544998
O -0.2561814014535001 1.6805750718215002 12.7770077453545
O -1.7629612814535003 4.3410064718215 1.0176703803545
O -1.9188293414535003 4.2594735718215 12.7720303903545
O 2.9642771635464995 1.9122256268215 1.0643976403545
O 2.8084091035464995 1.8306927268215 12.8187576503545
O 1.3016292235464992 4.4911241268215 1.0594202853544998
O 1.1457611635464993 4.4095912268215 12.8137802953545
O -0.038967015 -0.020383225 2.9385900025
O -0.194835075 -0.101916125 14.692950012499999
O 4.427566055 2.8587505850000006 3.0171124574999997
O 4.271697994999999 2.7772176850000005 14.771472467499999
O 3.02562349 0.12973443 2.9803399075
O 2.86975543 0.04820153 14.734699917499999
O 1.3629755499999998 2.7086329300000003 2.9753625524999996
O 1.2071074899999998 2.6271000300000003 14.7297225625
O -0.116901045 -0.061149675 8.8157700075
O -0.272769105 -0.142682575 20.5701300175
O 4.349632025 2.8179841350000006 8.8942924625
O 4.193763965 2.7364512350000005 20.6486524725
O 2.94768946 0.08896798 8.857519912499999
O 2.7918214 0.00743508 20.6118799225
O 1.2850415199999998 2.6678664800000003 8.8525425575
O 1.1291734599999999 2.5863335800000002 20.606902567499997
