80

In 1.7034175370400002 7.726179227029999 6.71775594218
In 7.00790409704 7.714597092029999 6.69284046218
In 3.6613811120199995 1.34773571811 1.8864413769600001
In 8.965867672019998 1.33615358311 1.8615258969600001
In 1.0130893136 3.1832342167699994 1.8929836217000002
In 6.317575873599999 3.1716520817699996 1.8680681417000002
In 4.351709335460001 5.8906807283700005 6.71121369744
Al 9.65619589546 5.87909859337 6.68629821744
In 0.9623747520599999 5.958062885475001 -0.02372915746
In 6.2668613120600005 5.946480750475001 -0.04864463746
Ga 4.38446459294 3.103714964525 4.81203320246
Al 9.688951152939998 3.092132829525 4.787117722460001
Ga 1.72862194358 1.4428418373049998 4.82987931438
In 7.03310850358 1.431259702305 4.8049638343800005
Al 3.6637993914200004 7.649740822695 9.64343304062
Al 8.96828595142 7.638158687695 9.61851756062
Al 0.9372770037900001 0.30056693391 9.670258962150001
In 6.241763563789999 0.28898479891 9.64534348215
Al 4.45505316723 8.79195411647 4.78368337623
Al 9.759539727229999 8.780371981470001 4.75876789623
Al 1.79420269963 4.81224384877 4.80902635343
Al 7.09868925963 4.800661713769999 4.78411087343
In 3.5981274713899998 4.28027720161 9.64491598495
Al 8.90261403139 4.268695066609999 9.620000504950001
Ga 3.6725175207600005 1.4384089630549999 7.600436749260001
Al 8.97700408076 1.4268268280549998 7.575521269260001
In 1.7004858864999999 7.641050847884999 2.7470620656799998
In 7.004972446499999 7.629468712885 2.72214658568
In 4.349090673559999 5.950479670505 2.74005126686
In 9.65357723356 5.938897535504999 2.71513578686
Al 1.0239127337 3.1289801404350004 7.607447548080001
Al 6.3283992937 3.117398005435 7.582532068080001
O 4.45121091282 6.077680726435 8.60846607044
O 9.75569747282 6.066098591435001 8.583550590440002
O 0.93145587632 3.0083097042250007 3.7922545062200004
O 6.23594243632 2.9967275692250004 3.7673390262200006
O 3.58053014634 1.535129508765 3.7845408762800004
O 8.88501670634 1.523547373765 3.7596253962800006
O 1.8021366428 7.550860921895 8.61617970038
O 7.1066232028 7.539278786894999 8.591264220380001
O 2.81370257182 0.094817222835 6.078526038320001
O 8.11818913182 0.083235087835 6.053610558320001
O 2.5448969266 8.974908268145 1.20851015066
O 7.8493834866 8.963326133145 1.18359467066
O 5.18771142382 4.603181647085 1.21016760232
O 10.49219798382 4.591599512085 1.18525212232
O 0.1708880746 4.466543843895001 6.076868586660001
O 5.475374634599999 4.454961708895 6.05195310666
O 0.10126031952 7.4944845686449995 1.1472938843
O 5.40574687952 7.482902433644999 1.1223784043
O 5.256609867060001 1.574748045375 5.98478217172
O 10.56109642706 1.563165910375 5.95986669172
O 2.6073791027199995 2.9754645801949997 5.9927300787
O 7.911865662720001 2.963882445195 5.9678145987
O 2.7504910838600005 6.093768033825001 1.13934597732
O 8.05497764386 6.082185898825001 1.11443049732
O 5.20137634059 7.571790212859999 6.130364789170001
O 10.505862900590001 7.56020807786 6.105449309170001
O 0.15804363365 1.4984897647000002 1.3310015493900003
O 5.46253019365 1.4869076297000001 1.3060860693900003
O 2.8136124179500004 3.0325514858 1.3135654222900002
O 8.11809897795 3.0209693508 1.2886499422900002
O 2.5458075562899998 6.03772849176 6.1478009162700005
O 7.850294116290001 6.02614635676 6.122885436270001
O 1.9577191558 1.5623486033250003 8.37324432108
O 7.2622057157999995 1.5507664683250002 8.34832884108
O 3.42248620588 7.5219783675950005 3.50448580684
O 8.72697276588 7.510396232595 3.4795703268400002
O 0.7671130394800001 6.0784962222950005 3.52162908764
O 6.07159959948 6.066914087295 3.4967136076400003
O 4.6130923222 3.005830748625 8.35610104028
O 9.917578882199999 2.9942486136250004 8.33118556028
O 4.47559411695 0.02709962172 8.69564885309
O 9.78008067695 0.01551748672 8.67073337309
O 0.90771082005 9.05932207628 3.8406618399100005
O 6.21219738005 9.04773994128 3.8157463599100003
O 3.55021232863 4.5426681339399995 3.8427878456500006
O 8.854698888629999 4.53108599894 3.8178723656500004
O 1.83309260837 4.54375356406 8.693522847350001
O 7.13757916837 4.53217142906 8.66860736735
