80

Ga 11.01592511099 1.5274035e-05 1.140462988595
Ga 11.01591458099 3.075657414035 1.140459258595
Ga 23.444235770989998 3.2889035e-05 1.109272493595
Ga 23.444225240989997 3.075675029035 1.1092687635949998
Ga 0.0396573590099999 -1.259035e-06 4.529883826405
Ga 0.03964682901 3.0756408809649995 4.529880096405
Ga 12.46796801901 1.6355965e-05 4.498693331405001
Ga 12.467957489009999 3.0756584959649995 4.498689601405
Ga 4.801764515989999 1.5378275365349998 1.156056371095
Ga 4.801753985989999 4.613469676535 1.1560526410949998
Ga 17.23007517599 1.537845151535 1.1248658760949999
Ga 17.230064645989998 4.613487291535 1.124862146095
Ga 6.253807424009999 1.5378286184649999 4.514286713905
Ga 6.253796894009999 4.6134707584650005 4.514282983905
Ga 18.68211808401 1.5378462334649998 4.4830962189050005
Ga 18.68210755401 4.6134883734650005 4.483092488905
Ga 9.510512461719998 1.537833414615 3.8850215233650003
Ga 9.510501931719999 4.6134755546149995 3.8850177933650003
Ga 21.938823121720002 1.5378510296149999 3.853831028365
Al 21.93881259172 4.6134931696149994 3.853827298365
Ga 1.54505947828 1.5378227403849998 1.785321561635
Al 1.54504894828 4.613464880385 1.785317831635
Ga 13.97337013828 1.5378403553849997 1.754131066635
Ga 13.973359608280001 4.613482495385 1.754127336635
Ga 3.2963623967199998 3.537115e-06 3.9006186358650003
Ga 3.29635186672 3.075645677115 3.9006149058650004
Ga 15.724673056719999 2.1152115e-05 3.869428140865
Ga 15.724662526719998 3.075663292115 3.869424410865
Ga 7.759220073279999 1.0477885e-05 1.769728179135
Ga 7.759209543279998 3.075652617885 1.769724449135
Ga 20.18753073328 2.8092885e-05 1.738537684135
Ga 20.18752020328 3.075670232885 1.738533954135
O 9.678330696789999 1.2994405e-05 2.465777265105
O 9.678320166789998 3.075655134405 2.465773535105
O 22.106641356789996 3.0609405e-05 2.434586770105
O 22.106630826789996 3.075672749405 2.434583040105
O 1.3772517732099996 1.020595e-06 3.2045695498949995
O 1.3772412432099996 3.075643160595 3.2045658198949996
O 13.80556243321 1.8635595e-05 3.173379054895
O 13.805551903209999 3.075660775595 3.173375324895
O 3.4641701017899993 1.537825256905 2.481370647605
O 3.4641595717899993 4.613467396905 2.481366917605
O 15.89248076179 1.537842871905 2.4501801526049998
O 15.89247023179 4.613485011905 2.450176422605
O 7.59140183821 1.537830898095 3.1889724373949995
O 7.591391308210001 4.613473038095 3.1889687073949995
O 20.01971249821 1.537848513095 3.1577819423949998
O 20.01970196821 4.613490653095 3.157778212395
O 9.155911312 1.1504525e-05 5.048324142575
O 9.155900782 3.075653644525 5.048320412575
O 21.584221971999998 2.9119525e-05 5.017133647575
O 21.584211441999997 3.075671259525 5.017129917575
O 1.899671158 2.510475e-06 0.622022672425
O 1.8996606280000001 3.0756446504749997 0.622018942425
O 14.327981818 2.0125475e-05 0.590832177425
O 14.327971287999999 3.075662265475 0.590828447425
O 2.9417507169999997 1.537823767025 5.063917525075
O 2.9417401869999997 4.613465907025 5.063913795075
O 15.370061377 1.5378413820249999 5.032727030075
O 15.370050847 4.613483522025 5.032723300075
O 8.113821223 1.537832387975 0.606425559925
O 8.113810693000001 4.613474527975 0.606421829925
O 20.542131883 1.537850002975 0.575235064925
O 20.542121353 4.613492142975 0.575231334925
O -0.9702290675299999 1.53781846566 4.23611559435
O -0.9702395975299999 4.613460605659999 4.23611186435
O 11.458081592469998 1.53783608066 4.20492509935
O 11.45807106247 4.613478220659999 4.20492136935
O 12.02580100753 1.5378376893399999 1.43422749065
O 12.02579047753 4.61347982934 1.4342237606500001
O 24.45411166753 1.53785530434 1.40303699565
O 24.45410113753 4.61349744434 1.40303326565
O 5.24393152747 6.20316e-06 4.22052221185
O 5.24392099747 3.0756483431599997 4.22051848185
O 17.672242187469998 2.381816e-05 4.18933171685
O 17.672231657469997 3.0756659581599997 4.1893279868499995
O 5.811650942529999 7.81184e-06 1.44982460315
O 5.811640412529999 3.0756499518399996 1.44982087315
O 18.23996160253 2.542684e-05 1.41863410815
O 18.239951072529998 3.0756675668399995 1.41863037815
