80

Ga 1.60888793667 7.27641621815 6.38315519129
Al 6.584931796669999 7.25279209815 6.36582622629
Al 3.4357584130499994 1.25977584433 1.7946126469900001
Ga 8.411802273049998 1.23615172433 1.7772836819900002
Ga 0.95588031303 2.99892522403 1.8013513079500003
Al 5.93192417303 2.97530110403 1.7840223429500002
Al 4.08876603669 5.537266838450001 6.37641653033
Al 9.06480989669 5.513642718450001 6.35908756533
Al 0.91723977236 5.622444333820001 -0.009375105395
Ga 5.893283632359999 5.598820213820001 -0.026704070395
Ga 4.114940267640001 2.9099393561800007 4.571231930395
Al 9.090984127639999 2.8863152361800006 4.553902965395
Al 1.6195001954799997 1.3483352437800002 4.5816506265750006
Ga 6.59554405548 1.3247111237800002 4.564321661575001
Al 3.44432022452 7.19371436622 9.157645318425
Ga 8.420364084520001 7.17009024622 9.140316353425002
Ga 0.8687935877999999 0.26222264742 9.16506440166
Al 5.8448374478 0.23859852742 9.147735436660001
Ga 4.19496355144 8.27980763074 4.5558766651000004
Al 9.17100741144 8.25618351074 4.5385477001000005
Ga 1.6892025858400002 4.529102756740001 4.5687360064
Al 6.66524644584 4.505478636740001 4.5514070414
Al 3.3745545534000003 4.01292752142 9.15220506036
Al 8.350598413399998 3.98930340142 9.134876095360001
Ga 3.43982063359 1.3339590082900001 7.209277444525001
Al 8.41586449359 1.31033488829 7.191948479525001
Al 1.61052098453 7.20397291979 2.620429435355
Al 6.58656484453 7.18034879979 2.603100470355
Al 4.09104414039 5.60164233769 2.613538234075
Ga 9.067088000390001 5.57801821769 2.596209269075
Al 0.95929747773 2.936289590390001 7.216168645805001
Al 5.93534133773 2.912665470390001 7.198839680805001
O 4.180366616589999 5.7097832457300015 8.174709330045001
O 9.15641047659 5.6861591257300015 8.157380365045
O 0.8766827620900001 2.8301978573900004 3.6006146432750006
O 5.8527266220900005 2.8065737373900004 3.583285678275
O 3.3581735017100005 1.4330954716900004 3.5934946315150005
O 8.33421736171 1.4094713516900004 3.5761656665150006
O 1.69887587697 7.10688563143 8.181829341805
O 6.67491973697 7.08326151143 8.164500376805
O 2.63268766943 0.07063777433 5.763425695925
O 7.608731529429999 0.04701365433 5.746096730925
O 2.40765558861 8.464239723030001 1.166210422035
O 7.383699448610001 8.44061560303 1.148881457035
O 4.87624521143 4.330761385330001 1.162141216675
O 9.85228907143 4.307137265330001 1.1448122516750001
O 0.16409804661 4.20411611203 5.7674949012850005
O 5.14014190661 4.18049199203 5.750165936285001
O 0.11181046761 7.072636815469999 1.102325771255
O 5.08785432761 7.049012695469999 1.0849968062550002
O 4.92802654435 1.46208602717 5.680471320785
O 9.90407040435 1.4384619071700002 5.663142355785
O 2.44621327681 2.7907790140700004 5.687667602705001
O 7.422257136810001 2.7671548940700004 5.670338637705
O 2.59362373515 5.743943828570001 1.095129489335
O 7.5696675951499985 5.720319708570001 1.077800524335
O 4.89056504601 7.12343521207 5.830401706630001
O 9.866608906009999 7.09981109207 5.813072741630001
O 0.15034773887 1.4116162718500003 1.2644283154900002
O 5.12639159887 1.3879921518500002 1.2470993504900003
O 2.64522338717 2.8535039363500005 1.2541430920900003
O 7.62126724717 2.8298798163500005 1.2368141270900002
O 2.39568939771 5.681547547570001 5.84068693003
O 7.37173325771 5.657923427570001 5.8233579650300005
O 1.83060612084 1.4535421039000003 7.939785780655001
O 6.8066499808400005 1.4299179839000002 7.922456815655001
O 3.2247346773200003 7.08591703954 3.339956480185
O 8.20077853732 7.06229291954 3.322627515185
O 0.7302621889199999 5.729541123540002 3.350146365885
O 5.70630604892 5.7059170035400015 3.3328174008850002
O 4.325078609239999 2.8099180199000005 7.929595894955001
O 9.30112246924 2.786293899900001 7.912266929955001
O 4.18848932495 -0.00249926147 8.24519865949
O 9.16453318495 -0.02612338147 8.227869694490002
O 0.86900301905 8.54261568747 3.6586094615100007
O 5.84504687905 8.518991567470001 3.6412804965100003
O 3.33694758603 4.27231855217 3.6546927964700004
O 8.31299144603 4.24869443217 3.6373638314700005
O 1.72054475797 4.26779787383 8.24911532453
O 6.696588617970001 4.24417375383 8.23178635953
