80

Al 6.8935476775 2.29727979 6.8556758375
Al 2.2960578075 6.86714767 6.8822444874999995
Al 6.8637433825 6.89129173 2.2819519525
Al 6.8800066575 6.881022509999999 6.8656595475
Al 2.2797945325 6.87741689 2.2985368925
Al 6.8772844025 2.3075490100000002 2.2719682425
Al 2.3095988275 2.28340495 6.8722607775
Al 2.2933355525 2.29367417 2.2885531825
Ga 6.87956631936 4.28259125504 4.56813500272
Al 2.26581317436 8.86272835504 0.01099605772
Al 6.86146146564 4.91624948496 -0.01421480772
Ga 4.5787946923 6.87991800696 4.27040610354
Al 0.0246501373 2.27203122696 8.86071492854
Ga -0.0029423523 6.86464655304 4.91037527646
Ga 4.2830942207 4.5812702408799995 6.87008793842
Ga 8.8643208157 0.02167158088 2.25981169342
Ga 4.9200522843 -0.00058550088 6.85784867658
Ga 2.2937758906399996 4.8921054249600004 4.58607772728
Al 6.87500248564 0.33250676496 -0.02419851772
Al 2.2793541943599998 4.27898563504 0.00101234772
Ga 4.5945475177 2.29477867304 4.88380662646
Al -0.0192056273 6.87491577304 0.32666768146
Ga 0.0083868623 2.28230044696 4.27700733354
Al 4.8902479893 4.59342643912 2.28412479158
Ga 0.3361034342999999 -0.01446034088 6.87443361658
Ga 4.2803719657 0.00779674088 2.27639663342
Ga 2.30731691064 0.30836270496 4.57609401728
Al 4.5782842427 2.3050478930400002 0.30009903146
Ga 0.3062991393 4.57955159912 2.30070973158
Ga 6.8660252993599995 8.86633397504 4.57811871272
Al 4.5950579673 6.86964878696 8.854113698539999
Al 8.8670430707 4.59514508088 6.85350299842
O 5.69484491316 3.5882183920000004 6.00106630026
O 3.4871234365599997 8.16143996208 7.742484837179999
O 8.05633115544 5.60421435472 1.41308743402
O 5.69505601984 5.5828689912 7.72889325354
O 6.01006790745 5.69401423284 3.57507969841
O 7.75639563965 3.48876544708 8.14775917517
O 1.42616851495 8.05920822732 5.595352679029999
O 7.740723462949999 5.694753792759999 5.56734027239
O 3.5870486434599997 6.01198674072 5.68392662224
O 8.15809969794 7.75427806904 3.4709159116
O 5.60764826506 1.42895345656 8.0502398278
O 5.5805589185399995 7.741523433679999 5.68044946336
O 3.4784972968399996 5.586478288 3.1531464297399996
O 5.686218773439999 1.01325671792 1.4117278928199999
O 1.11701105456 3.5704823252800004 7.74112529598
O 3.47828619016 3.5918276888000005 1.42531947646
O 3.1632743025499996 3.48068244716 5.57913303159
O 1.4169465703500002 5.685931232919999 1.00645355483
O 7.74717369505 1.11548845268 3.55886005097
O 1.43261874705 3.47994288724 3.58687245761
O 5.58629356654 3.1627099392799995 3.47028610776
O 1.01524251206 1.42041861096 5.6832968184
O 3.5656939449399996 7.74574322344 1.1039729022
O 3.5927832914599995 1.43317324632 3.47376326664
O 1.0810917681599999 8.168355492 1.44392735526
O 8.06835003156 3.60184130208 3.1322085921799996
O 3.5021866004399995 0.99632757472 6.0033962590200005
O 1.10838491484 0.9955206512 3.1517868885399998
O 1.45592335245 1.08612745284 8.16538852341
O 3.1426424946499996 8.06890254708 3.59062023017
O 6.007395109949999 3.49960956732 0.98507643403
O 3.1540523579499995 1.1074054527600001 0.99023390739
O 8.168275238460001 1.45238808072 1.07365037724
O 3.60395514294 3.14639128904 8.0612247366
O 0.9938951200599999 6.00909055656 3.4931008828
O 0.9938878135399999 3.1541750936799997 1.1033430983599999
O 8.092250441840001 1.006341188 7.71028537474
O 1.1049921784399999 5.572855377920001 6.02200413782
O 5.67115560956 8.17836910528 3.1508164709799997
O 8.06495729516 8.1791760288 6.00242584146
O 7.717418857549999 8.088569227159999 0.98882420659
O 6.030699715349999 1.10579413292 5.5635924998299995
O 3.1659471000499995 5.67508711268 8.16913629597
O 6.01928985205 8.067291227239998 8.16397882261
O 1.00506697154 7.722308599279999 8.08056235276
O 5.569387067059999 6.028305390960001 1.0929879934
O 8.17944708994 3.1656061234399995 5.6611118472
O 8.17945439646 6.02052158632 8.05086963164
