80

Ga 10.820161002430002 3.422635e-06 1.2261786883749999
In 10.820154822430002 3.180154092635 1.226182208375
In 23.08917187243 8.687635e-06 1.200625013375
Al 23.08916569243 3.180159357635 1.200628533375
In -0.1724666124299999 -4.807635e-06 4.842935826625
Al -0.1724727924299999 3.1801458623650003 4.842939346625
Ga 12.09654425757 4.57365e-07 4.817382151625
In 12.09653807757 3.1801511273650003 4.817385671625001
In 4.685652477430001 1.5900761251350002 1.238957285875
In 4.685646297430001 4.770226795135001 1.238960805875
Ga 16.95466334743 1.5900813901350002 1.213403610875
Al 16.95465716743 4.770232060135 1.2134071308749999
Ga 5.96203573257 1.5900731598650002 4.8301607491250005
Ga 5.962029552570001 4.770223829865 4.830164269125
In 18.23104660257 1.5900784248650002 4.804607074125
In 18.23104042257 4.770229094865 4.804610594125
In 9.206011946390001 1.590075200965 4.159453497665001
Ga 9.206005766390001 4.7702258709650005 4.159457017665001
In 21.47502281639 1.590080465965 4.133899822665001
In 21.47501663639 4.770231135965001 4.1339033426650005
Al 1.44167626361 1.590074084035 1.909664537335
Al 1.44167008361 4.770224754035001 1.909668057335
In 13.71068713361 1.590079349035 1.884110862335
Ga 13.71068095361 4.770230019035001 1.884114382335
In 3.0715096013900007 -2.766535e-06 4.172228575165001
In 3.071503421390001 3.180147903465 4.1722320951650005
Al 15.340520471390002 2.498465e-06 4.146674900165
In 15.340514291390003 3.1801531684650004 4.146678420165
Ga 7.576184788610001 1.381535e-06 1.896885939835
Al 7.576178608610001 3.1801520515350004 1.8968894598350001
Ga 19.845195658610002 6.646535e-06 1.8713322648350001
Al 19.845189478610003 3.1801573165350003 1.871335784835
O 9.437956687729999 1.448105e-06 2.642237109805
O 9.43795050773 3.180152118105 2.642240629805
O 21.706967557730003 6.713105e-06 2.616683434805
O 21.706961377730003 3.180157383105 2.616686954805
O 1.2097377022700002 -2.833105e-06 3.426877405195
O 1.20973152227 3.1801478368950002 3.426880925195
O 13.478748572270002 2.431895e-06 3.4013237301949997
O 13.478742392270002 3.1801531018950002 3.4013272501949996
O 3.303448162730001 1.590074150605 2.655015707305
O 3.3034419827300012 4.770224820605001 2.655019227305
O 15.57245903273 1.5900794156050002 2.629462032305
O 15.57245285273 4.770230085605001 2.629465552305
O 7.344240047270001 1.5900751343950001 3.4141023276949998
O 7.344233867270002 4.770225804395 3.4141058476949997
O 19.613250917270005 1.5900803993950001 3.388548652695
O 19.613244737270005 4.770231069395001 3.388552172695
O 8.80165240925 -1.522225e-06 5.402917370475
O 8.80164622925 3.1801491477750004 5.402920890475
O 21.070663279250002 3.742775e-06 5.377363695475
O 21.070657099250003 3.1801544127750003 5.377367215475
O 1.8460419807500001 1.37225e-07 0.666197144525
O 1.84603580075 3.180150807225 0.666200664525
O 14.11505285075 5.402225e-06 0.6406434695250001
O 14.11504667075 3.180156072225 0.640646989525
O 2.6671438842500006 1.590071180275 5.415695967975
O 2.667137704250001 4.770221850275 5.415699487975
O 14.93615475425 1.590076445275 5.390142292975
O 14.93614857425 4.770227115275 5.390145812975001
O 7.98054432575 1.590078104725 0.653422067025
O 7.980538145750001 4.770228774725 0.653425587025
O 20.249555195750002 1.590083369725 0.627868392025
O 20.249549015750002 4.7702340397250005 0.627871912025
O -1.15556519116 1.59007041511 4.52823801047
O -1.15557137116 4.77022108511 4.52824153047
O 11.11344567884 1.59007568011 4.50268433547
O 11.11343949884 4.770226350110001 4.5026878554700005
O 11.803253401160001 1.5900788698900001 1.54088002453
O 11.803247221160001 4.77022953989 1.54088354453
O 24.07226427116 1.5900841348900001 1.51532634953
O 24.072258091160002 4.77023480489 1.5153298695300002
O 4.978943333840001 -2.28739e-06 4.51545941297
O 4.978937153840001 3.1801483826100005 4.51546293297
O 17.24795420384 2.97761e-06 4.48990573797
O 17.24794802384 3.1801536476100005 4.48990925797
O 5.66875105616 9.0239e-07 1.55365510203
O 5.66874487616 3.18015157239 1.5536586220300002
O 17.93776192616 6.16739e-06 1.5281014270300002
O 17.93775574616 3.18015683739 1.52810494703
