80

In 7.3727800575 2.4542498875 7.3681695949999995
In 2.4561915425 7.3643135125 7.37585778
In 7.3668319375 7.3724201124999995 2.459486365
Al 7.3696300875 7.3675643625 7.37293446
In 2.4533933925 7.3691692625 2.462409685
In 7.3699819075 2.4591056375 2.4547215
In 2.4593415125 2.4509990375 7.371092914999999
In 2.4565433625 2.4558547875 2.4576448199999996
Al 7.37002019546 4.5792296157 4.91350396918
Ga 2.45063353046 9.4941489907 0.00774405918
Al 7.36679364954 5.2522961343 0.00070389582
Al 4.9113214657999995 7.3686970034999995 4.58355760204
Al 0.0038310408 2.4472759285 9.49516415204
In -0.0017365308 7.3647857715 5.2547098629599995
In 4.580371978940001 4.9090606422 7.372212473259999
In 9.49416234394 0.0038527672 2.45107619326
Al 5.25174959106 -0.0038117172 7.367050036739999
In 2.4561532545399998 5.2441895343 4.91707531082
In 7.36994361954 0.3389816593 -0.00406096918
In 2.45378350046 4.5808345157 0.00297919418
In 4.914851984199999 2.4547221465 5.24702167796
Al -0.0045346808 7.3696415215 0.34126176796
In 0.0010328908 2.4521316785 4.5817160570399995
Al 5.24580147106 4.914358507799999 2.45836680674
In 0.3383110460600001 -0.0070625672 7.369973356739999
In 4.58072379894 0.0006019172 2.45399951326
Al 2.4593032245399997 0.3308750593000001 4.912310445819999
In 4.9120538342 2.4595778965 0.33357358296
Ga 0.3323629260600001 4.9111076578 2.46129012674
Al 7.3668702254600005 9.4925440907 4.91826883418
In 4.9141196158 7.3638412534999995 9.497005697039999
In 9.493810523939999 4.9123114922 7.36928915326
O 6.09387169206 3.83987222945 6.44654510827
O 3.73332332486 8.74980053445 8.30016965059
O 8.64468819854 5.988623532549999 1.5336543680099999
O 6.093550409540001 5.98025157855 8.296079073129999
O 6.4447135615399995 6.0929778677 3.8443894470499997
O 8.29647659006 3.7309534893 8.754451238529999
O 1.53085702554 8.6425334377 5.992053866269999
O 8.29338644786 6.0920830803 5.98555364815
O 3.8416458875500004 6.442789625900001 6.09664110444
O 8.75255693183 8.2957774785 3.73705428808
O 5.98851010117 1.5283675314999998 8.645594681319999
O 5.98272070445 8.291613239099998 6.097158126159999
O 3.7323017579399997 5.983546920549999 3.3840341717299993
O 6.09285012514 1.0736186155499998 1.5304096294099998
O 1.18148525146 3.8347956174499997 8.296924911989999
O 3.73262304046 3.84316757145 1.53450020687
O 3.38145988846 3.7304412822999997 5.986189832949999
O 1.52969685994 6.0924656607 1.0761280414699999
O 8.29531642446 1.1808857122999998 3.83852541373
O 1.5327870021400003 3.7313360696999998 3.84502563185
O 5.98452756245 3.3806295240999993 3.7339381755599996
O 1.07361651817 1.5276416715 6.09352499192
O 3.83766334883 8.295051618499999 1.1849845986799998
O 3.84345274555 1.5318059109 3.7334211538399997
O 1.1744850270599998 8.754791604449998 1.5407851982699998
O 8.64711368986 3.84459265945 3.3790333705899993
O 3.7371977735399997 1.0672024575499999 6.44526091801
O 1.1804636845399998 1.06854200355 3.3807894331299995
O 1.53722313654 1.1715567927 8.75599599705
O 3.37708992506 8.6458728643 3.8486913285299997
O 6.44464739054 3.7373255626999997 1.07091758627
O 3.3802997228600002 1.1803735053 1.07026400815
O 8.75543625255 1.5375817509 1.17550482444
O 3.8450665068300003 3.3743564034999993 8.64866083808
O 1.06912343617 6.4432869065 3.73983477132
O 1.0696339794499998 3.379903664099999 1.18186848616
O 8.65168842294 1.06862754555 8.28979408173
O 1.17905976014 5.9788264905499995 6.45154590941
O 6.08897567646 8.75621669245 3.3853183619899996
O 8.645709765460001 8.75487714645 6.44978984687
O 8.288950313459999 8.651862357299999 1.07458328295
O 6.44908352494 1.1775462856999999 5.981887951469999
O 3.3815260594599996 6.086093587300001 8.75966169373
O 6.44587372714 8.6430456447 8.760315271849999
O 1.07073719745 8.285837399099998 8.65507445556
O 5.98110694317 6.4490627465 1.18191844192
O 8.75705001383 3.3801322434999994 6.090744508679999
O 8.75653947055 6.4435154859 8.64871079384
