80

In 7.033851035 2.3435311550000004 7.007338642500001
Ga 2.34270947 7.0138503000000005 7.0273804975
Al 7.01195153 7.03254878 2.3346530575
Al 7.023648015 7.024255815 7.0154452275
Al 2.331012985 7.022143265 2.3465883275
Al 7.02215455 2.3518241200000003 2.3265464725
Ga 2.35291249 2.3331256400000004 7.0192739125
In 2.341216005 2.3414186050000003 2.3384817425
Al 7.0235950878599995 4.36975069062 4.67044460222
Al 2.32075703786 9.04836280062 0.00969428722
In 7.01051099214 5.01462220938 -0.00924507222
Ga 4.67653513902 7.023763461620001 4.3627229099400004
Ga 0.01749609902 2.3243403216200003 9.04734376494
Al -0.00281268402 7.01223010338 5.011245915060001
Al 4.3699764314400005 4.6779831524799995 7.01817116836
In 9.04942151144 0.01595697248 2.31733714336
Ga 5.0167870935600005 -0.00132635748 7.00844138664
Ga 2.3412689321399998 4.99592372938 4.68348236778
Al 7.02071401214 0.33389754938 -0.01735165722
Al 2.33096005786 4.36763814062 0.00158770222
Al 4.6883288809799994 2.34191095838 4.99120406006
In -0.01450916902 7.02052306838 0.33045374506
In 0.00579961402 2.33263328662 4.366551594940001
Al 4.994887588560001 4.68769126752 2.33575580164
Al 0.3358485485600001 -0.01173187248 7.02037665664
Al 4.36848296644 0.00555145748 2.32927241336
Al 2.35147195214 0.31519906938 4.67537578278
Ga 4.67663239598 2.35020392338 0.31041189006
Al 0.31394904356 4.67728575252 2.34769107164
In 7.01339206786 9.05047535062 4.67855118722
Al 4.68823162402 7.015470496620001 9.04351507994
Al 9.05091497644 4.68838866748 7.00623589836
O 5.8117308224799995 3.66234915264 6.1327389417100004
O 3.55907517924 8.3349610106 7.90655231223
O 8.229673864159999 5.7168489372 1.44927490237
O 5.81168018412 5.70002694956 7.89625126869
O 6.13788627751 5.81126551545 3.6547725681000003
O 7.91451310503 3.56013718729 8.327185915780001
O 1.4567418295699999 8.23122109091 5.71174864842
O 7.9030188378899995 5.811562256349999 5.6911102927
O 3.6616112213500003 6.1389645900500005 5.805484749180001
O 8.33309911803 7.91330320041 3.54981731354
O 5.71878561917 1.4584643927899998 8.22618631486
O 5.6986640914499995 7.90345386675 5.80332904742
O 3.55313319752 5.70332526736 3.22118802829
O 5.805788840759999 1.0307134094 1.44737465777
O 1.13519015584 3.6488254828000004 7.90465206763
O 3.55318383588 3.66564747044 1.4576757013100001
O 3.22697774249 3.5544089045500002 5.6991544019
O 1.45035091497 5.80553723271 1.02674105422
O 7.90812219043 1.13445332909 3.6421783215800003
O 1.46184518211 3.55411216365 3.6628166773000004
O 5.7032527986499995 3.2267098299499994 3.54844222082
O 1.03176490197 1.4523712195899998 5.8041096564600005
O 3.64607840083 7.90721002721 1.12774065514
O 3.66619992855 1.46222055325 3.55059792258
O 1.10889277248 8.34096126264 1.47198862671
O 8.23852025924 3.6729348306 3.20571828723
O 3.57063482416 1.0174257972 6.13389575737
O 1.12924817412 1.01718973956 3.21928778369
O 1.47884723751 1.1118423754500002 8.3393934231
O 3.2116750550299997 8.23874929729 3.6664356007800003
O 6.13618690957 3.56919491091 1.01091462342
O 3.2205868278899996 1.1287250463499998 1.0141468077
O 8.34105630135 1.47693841005 1.10465072418
O 3.67406007803 3.2138800604099997 8.23443816854
O 1.0159475691700002 6.137076502790001 3.56543599986
O 1.01623208145 3.2206166567499994 1.12636556242
O 8.25597124752 1.02471315736 7.88193834329
O 1.1263437607600002 5.6927395894 6.148208682770001
O 5.79422919584 8.3482486228 3.22003121263
O 8.23561584588 8.34848468044 6.13463918631
O 7.88601678249 8.25383204455 1.0145335469
O 6.15318896497 1.1269251227100001 5.68749136922
O 3.2286771104299996 5.79647950909 8.34301234658
O 6.14427719211 8.236949373649999 8.3397801623
O 1.0238077186499999 7.888736009950001 8.24927624582
O 5.69080394197 6.15179435959 1.11948880146
O 8.348916450829998 3.2285979172099997 5.78849097014
O 8.34863193855 6.1450577632500005 8.22756140758
