80

Al 10.74347235351 2.27578e-06 1.200874754185
Al 10.743463408510001 3.09213339578 1.200895084185
Al 22.907339943510003 5.59578e-06 1.198812869185
Al 22.90733099851 3.0921367157799997 1.198833199185
Ga -0.10879152351 -2.57578e-06 4.664131690815
Al -0.1088004685100001 3.09212854422 4.664152020815001
Ga 12.05507606649 7.4422e-07 4.662069805815
Al 12.055067121490001 3.0921318642199997 4.662090135815
Al 4.66153408601 1.54606617578 1.201915861685
Ga 4.661525141009999 4.63819729578 1.201936191685
In 16.825401676010003 1.54606949578 1.199853976685
Al 16.82539273101 4.63820061578 1.199874306685
Al 5.973137798990001 1.54606464422 4.663110913315
Al 5.9731288539900005 4.63819576422 4.663131243315001
Al 18.13700538899 1.54606796422 4.661049028315
Al 18.13699644399 4.63819908422 4.661069358315
Ga 9.18078605333 1.5460658688 4.023084994095001
Ga 9.18077710833 4.6381969888 4.023105324095001
In 21.344653643330002 1.5460691887999998 4.021023109095
Ga 21.34464469833 4.6382003088 4.021043439095001
Al 1.4538858316700003 1.5460649512 1.841941780905
In 1.4538768866700003 4.6381960712 1.8419621109050002
Al 13.61775342167 1.5460682712 1.8398798959050002
Al 13.617744476670001 4.638199391200001 1.8399002259050001
In 3.09885673083 -1.3512e-06 4.024105771595001
In 3.09884778583 3.0921297688 4.024126101595001
Ga 15.26272432083 1.9688e-06 4.022043886595001
In 15.262715375829998 3.0921330888000003 4.022064216595001
In 7.53582409917 1.0512e-06 1.8409006734050002
In 7.535815154170001 3.0921321712 1.840921003405
In 19.699691689170002 4.3712e-06 1.8388387884050001
Al 19.69968274417 3.0921354912 1.838859118405
O 9.39126388281 1.1637e-06 2.562203681315
O 9.39125493781 3.0921322837 2.562224011315
O 21.55513147281 4.4837e-06 2.5601417963150004
O 21.55512252781 3.0921356037 2.5601621263150003
O 1.2434169471899998 -1.4637e-06 3.302802763685
O 1.24340800219 3.0921296563 3.302823093685
O 13.407284537190002 1.8563e-06 3.300740878685
O 13.407275592190002 3.0921329763 3.300761208685
O 3.3093256153100006 1.5460650636999997 2.563244788815
O 3.3093166703100008 4.6381961837 2.563265118815
O 15.473193205310002 1.5460683836999998 2.5611829038150002
O 15.473184260310001 4.6381995037 2.561203233815
O 7.325346269690002 1.5460657562999998 3.301781986185
O 7.325337324690002 4.6381968763 3.301802316185
O 19.489213859690004 1.5460690762999998 3.2997201011849997
O 19.489204914690003 4.638200196300001 3.299740431185
O 8.79585322125 -4.496e-07 5.219969139725
O 8.795844276250001 3.0921306703999996 5.219989469725
O 20.95972081125 2.8704e-06 5.2179072547250005
O 20.95971186625 3.0921339904 5.217927584725
O 1.8388276087500002 1.496e-07 0.645037305275
O 1.8388186637500004 3.0921312696 0.645057635275
O 14.00269519875 3.4696e-06 0.6429754202750001
O 14.002686253750001 3.0921345895999997 0.642995750275
O 2.7139149537500007 1.5460634504000001 5.221010247225
O 2.7139060087500004 4.6381945704 5.221030577225
O 14.877782543750003 1.5460667704 5.218948362225
O 14.877773598750002 4.6381978904 5.218968692225
O 7.92075693125 1.5460673695999998 0.6440165277750001
O 7.92074798625 4.6381984896 0.6440368577750001
O 20.084624521250003 1.5460706895999998 0.641954642775
O 20.084615576250002 4.6382018096 0.641974972775
O -1.08753476482 1.5460628836199999 4.3592336866500005
O -1.08754370982 4.638194003620001 4.3592540166500005
O 11.07633282518 1.54606620362 4.35717180165
O 11.07632388018 4.63819732362 4.357192131650001
O 11.72220664982 1.54606793638 1.5057930883500001
O 11.722197704820001 4.63819905638 1.50581341835
O 23.88607423982 1.54607125638 1.50373120335
O 23.88606529482 4.638202376380001 1.5037515333500002
O 4.99440350268 -1.01638e-06 4.358192579150001
O 4.99439455768 3.0921301036199997 4.358212909150001
O 17.15827109268 2.30362e-06 4.35613069415
O 17.15826214768 3.09213342362 4.35615102415
O 5.640277327320001 7.1638e-07 1.50681386585
O 5.64026838232 3.0921318363799997 1.5068341958500002
O 17.80414491732 4.03638e-06 1.50475198085
O 17.804135972319997 3.09213515638 1.5047723108500002
