80

In 7.4916843075 2.4926894099999997 7.492546537499999
In 2.4963175725 7.4856976799999995 7.4972631675
Ga 7.490077252499999 7.491111459999999 2.5022924224999996
In 7.490605342499999 7.486927949999999 7.4966151975
In 2.4957894825 7.489881189999999 2.5029403924999998
Al 7.4911562174999995 2.49687292 2.4982237625
Ga 2.4973965375000002 2.4914591399999995 7.493194507499999
Al 2.4968684475000003 2.4956426499999997 2.4988717324999996
In 7.49095414962 4.65229221428 4.99714281112
In 2.4950593246199997 9.649483994279999 0.00753666612
In 7.490279320379999 5.33569216572 0.00337337388
In 4.99316150238 7.4886890486799995 4.6601638463
In 0.00048078738 2.48903672868 9.6510659313
In -0.00105444738 7.486889821319999 5.3400397136999995
Al 4.654389371640001 4.98910988664 7.494948914459999
In 9.649228016639999 0.00028512664 2.4959095094599997
In 5.33469147336 -0.00496133664 7.490792130539999
Al 2.49651964038 5.330278385720001 4.9983441188799995
In 7.49135828538 0.34145362572 -0.00069528612
In 2.4961382896199997 4.65524545428 0.00346800612
In 4.99431228762 2.49388155132 5.3353230837
Ga -0.00158253738 7.491073331319999 0.3457169387
In -4.730262e-05 2.4932202386799998 4.6567431563
In 5.33308441836 4.993460713359999 2.5005380155399997
In 0.34040370336 -0.00619160664 7.491440100539999
Ga 4.65494024664 -0.00094514336 2.49655747946
In 2.49759860538 0.33603984572 4.99427545888
Ga 4.99378419762 2.49806506132 0.3410003087
In 0.33879664836 4.9922304433599995 2.50118598554
In 7.48987518462 9.646530754279997 5.0012114711199995
In 4.993689592379999 7.484505538679999 9.654486621299998
In 9.648677141639999 4.990340156639999 7.494300944459999
O 6.19276593825 3.9015313079599996 6.55492969012
O 3.7946274054899995 8.8936063186 8.43717473912
O 8.78879705991 6.083842561799999 1.5620439064799998
O 6.19249407135 6.077446311639998 8.434568989279999
O 6.55158060402 6.191198399019999 3.90975541181
O 8.43047879874 3.7902429713399997 8.90188159329
O 1.5569620194599998 8.785148159459998 6.09004381491
O 8.429663052779999 6.189836970179999 6.0870365049899995
O 3.90477226566 6.54821548322 6.1977916103799995
O 8.898400861619999 8.429287529059998 3.8013985245399997
O 6.08363530518 1.55233791574 8.79048827846
O 6.08187604254 8.426585571979997 6.19903891162
O 3.7947078517499997 6.081039292039999 3.4405572398799995
O 6.192846384509999 1.0889642814 1.55831219088
O 1.1986767300899999 3.8987280382 8.433443023519999
O 3.7949797186499996 3.9051242883599997 1.5609179407199998
O 3.43589318598 3.7913722009799997 6.085731518189999
O 1.5569949912599998 6.192327628659999 1.0936053367099998
O 8.43051177054 1.1974224405399998 3.9054431150899998
O 1.5578107372199999 3.79273362982 3.90845042501
O 6.082701524339999 3.4343551167799995 3.79769531962
O 1.0890729283799998 1.5532830709399998 6.19408840546
O 3.90383848482 8.430232684259998 1.20499865154
O 3.90559774746 1.5559850280199998 3.7964480183799996
O 1.19687111325 8.898723087959999 1.5653235451199998
O 8.789466050489999 3.9047815585999994 3.4381353341199996
O 3.7961163449099997 1.0841902417999998 6.55294599148
O 1.19875717635 1.08616101164 3.4368255242799997
O 1.5588998890199999 1.1915460790199996 8.90065749681
O 3.4345839737399997 8.78743475134 3.91227544829
O 6.551800664459999 3.79632339946 1.09100440991
O 3.43592615778 1.1985516701799999 1.0892930399899998
O 8.89961091066 1.55939072322 1.19875220538
O 3.90572014662 3.4296352090599993 8.79230060954
O 1.08774048018 6.5495296957399995 3.8008821334599996
O 1.0881391475399997 3.4353002719799997 1.2012954466199999
O 8.790602676749998 1.08384751204 8.430163384879998
O 1.19800773951 6.077789041399999 6.55735159588
O 6.1913574450899995 8.898380358199999 3.4425409385199996
O 8.78871661365 8.896409588359997 6.55866140572
O 8.42857390098 8.791024520979999 1.09482943319
O 6.5528898162599996 1.1951358486599997 6.083211481709999
O 3.4356731255399997 6.1862472005399995 8.90448252009
O 6.55154763222 8.78401892982 8.90619389001
O 1.0878628793399998 8.423179876779999 8.79673472462
O 6.08175364338 6.55293539094 1.20318632046
O 8.89973330982 3.43304090426 6.194604796539999
O 8.89933464246 6.54727032802 8.794191483379999
