80

In -0.0290796 -0.0335571075 6.073794215
In -0.0872388 -0.1006713225 18.221382645000002
Al 4.860833625 2.7904439775 6.11198233
Ga 4.802674425 2.7233297624999997 18.259570760000003
Ga 3.2309029799999998 -0.0331080475 6.0892068450000005
In 3.17274378 -0.1002222625 18.236795275000002
In 1.600851045 2.7899949174999996 6.096569700000001
Ga 1.542691845 2.7228807024999995 18.244158130000002
Al 0.0 0.0 0.0
Ga -0.0581592 -0.067114215 12.14758843
Ga 4.889913225 2.824001085 0.038188115
In 4.8317540249999995 2.7568868699999998 12.185776545000001
Ga 3.25998258 0.00044906 0.01541263
In 3.20182338 -0.066665155 12.163001060000001
Ga 1.629930645 2.8235520249999997 0.022775485
Ga 1.571771445 2.7564378099999995 12.170363915000001
Ga -0.0145802259569999 1.8652515544169999 3.0469422162220003
Al -0.0727394259569999 1.798137339417 15.194530646222
Al -1.6446321609570005 4.6883545194169995 3.054305071222
Ga -1.7027913609570005 4.621240304416999 15.201893501222001
In 3.2454023540429997 1.8657006144169999 3.062354846222
Ga 3.1872431540429997 1.798586399417 15.209943276222
Ga 1.6153504190429993 4.688803579417 3.0697177012220003
In 1.5571912190429993 4.621689364417 15.217306131222001
Ga 1.5863516709569998 0.8911862555829999 9.123421698778001
Al 1.5281924709569998 0.8240720405829999 21.271010128778002
Al -0.0437002640429999 3.7142892205829994 9.130784553778
Ga -0.1018594640429999 3.6471750055829997 21.278372983778002
Ga 4.846334250957001 0.8916353155829999 9.138834328778001
In 4.788175050957 0.8245211005829999 21.286422758778002
Al 3.2162823159570006 3.7147382805829996 9.146197183778
Ga 3.1581231159570007 3.647624065583 21.293785613778002
O -0.0241125188369999 1.8542515345784998 5.037931959899
O -0.0822717188369999 1.7871373195784999 17.185520389899
O -1.6541644538370004 4.6773544995785 5.045294814899
O -1.7123236538370004 4.6102402845784995 17.192883244899
O 3.235870061163 1.8547005945784998 5.053344589899
O 3.177710861163 1.7875863795784999 17.200933019899
O 1.6058181261629993 4.6778035595785 5.060707444899
O 1.5476589261629994 4.6106893445785 17.208295874899
O 1.595883963837 0.9021862754214999 7.132431955101
O 1.537724763837 0.8350720604214998 19.280020385101
O -0.0341679711629999 3.7252892404214997 7.139794810101
O -0.0923271711629999 3.6581750254214995 19.287383240101
O 4.855866543837 0.9026353354214999 7.147844585101
O 4.797707343837001 0.8355211204214998 19.295433015101
O 3.2258146088370006 3.7257383004215 7.155207440101
O 3.1676554088370006 3.6586240854214997 19.302795870101
O 1.576819378077 0.8801862357445 11.114411442455001
O 1.518660178077 0.8130720207444999 23.261999872455
O -0.0532325569229999 3.7032892007444995 11.121774297455001
O -0.1113917569229999 3.6361749857444994 23.269362727455
O 4.836801958077 0.8806352957445 11.129824072455001
O 4.778642758077001 0.8135210807444999 23.277412502455
O 3.2067500230770003 3.7037382607444997 11.137186927455001
O 3.1485908230770003 3.6366240457444996 23.284775357455
O -0.0050479330769999 1.8762515742555 1.055952472545
O -0.0632071330769999 1.8091373592554998 13.203540902545
O -1.6350998680770004 4.699354539255499 1.063315327545
O -1.6932590680770003 4.632240324255499 13.210903757545001
O 3.2549346469229996 1.8767006342555 1.071365102545
O 3.1967754469229996 1.8095864192554998 13.218953532545001
O 1.6248827119229994 4.6998035992555 1.078727957545
O 1.5667235119229994 4.6326893842554995 13.226316387545001
O -0.0145398 -0.01677855375 3.0368971075
O -0.072699 -0.08389276875 15.1844855375
O 4.875373425 2.80722253125 3.0750852225000003
O 4.817214225 2.7401083162499997 15.222673652500001
O 3.24544278 -0.01632949375 3.0523097375000003
O 3.18728358 -0.08344370875 15.1998981675
O 1.6153908449999999 2.8067734712499997 3.0596725925
O 1.5572316449999999 2.7396592562499995 15.207261022500001
O -0.0436194 -0.05033566125 9.110691322500001
O -0.1017786 -0.11744987625 21.258279752500002
O 4.846293825 2.77366542375 9.1488794375
O 4.788134625 2.70655120875 21.296467867500002
O 3.21636318 -0.04988660125 9.126103952500001
O 3.15820398 -0.11700081625 21.273692382500002
O 1.5863112449999999 2.7732163637499996 9.133466807500001
O 1.528152045 2.70610214875 21.281055237500002
