80

Ga 7.050278972499999 2.3469264875 7.014018775
Ga 2.3497443624999996 7.0231786275 7.04012247
Ga 7.023016812499999 7.0463653575 2.335871625
Al 7.038445777499999 7.0356302025 7.02429123
Ga 2.3343153974999997 7.0339137825 2.351702865
Al 7.034850007499999 2.3576616425 2.32559917
Ga 2.3615775574999995 2.3344749125 7.029850015
Ga 2.3461485924999996 2.3452100675 2.34143041
Ga 7.037452549759999 4.37781406988 4.67424667306
Ga 2.32148897476 9.06480136488 0.01193076306
Ga 7.020414270239999 5.026212930120001 -0.01277587806
Ga 4.68533141788 7.0355019830400005 4.3691845143600005
Ga 0.02389216288 2.3236115380399998 9.06316290436
Ga -0.00127165788 7.0215904269600005 5.02264082064
Ga 4.381179971279999 4.6842058504 7.02814714682
Ga 9.06628561628 0.0186888654 2.31362384682
Ga 5.03067655872 -0.0028044504 7.01572164318
Ga 2.3471418202399996 5.003026200120001 4.6914749669399995
Ga 7.032247465239999 0.33750921512 -0.02304833306
Ga 2.3333221697599997 4.37609764988 0.00165830806
Ga 4.69926295212 2.34533828696 4.996537125640001
Ga -0.01670062288 7.03232558196 0.33422121564
Ga 0.00846319788 2.33434669304 4.37474329936
Ga 5.0034143987199995 4.6966344196 2.33757449318
Ga 0.34197514372 -0.0152560254 7.03155288318
Ga 4.3775842012799995 0.0062372904 2.32945508682
Ga 2.35897501524 0.3143224851200001 4.68120251194
Ga 4.68383398712 2.35607344196 0.30811752064
Ga 0.31471298372 4.6841828446 2.35340573318
Ga 7.025619354759999 9.066517784879998 4.68451912806
Ga 4.7007603828799995 7.024766828040001 9.05760411936
Ga 9.06988138628 4.6966574254 7.01231590682
O 5.82497899819 3.6679217347699997 6.1396088439700005
O 3.5683704148299995 8.346612275490001 7.920326065649999
O 8.24251549597 5.729406528509999 1.44743578455
O 5.82562101601 5.708160136229999 7.906933405829999
O 6.14896854531 5.8219341817900006 3.65831138843
O 7.933029175949999 3.56530303579 8.33584766879
O 1.46084089765 8.24292801101 5.72363525281
O 7.918647306089999 5.82193544641 5.6965097899699995
O 3.67017127129 6.14800481353 5.81473774148
O 8.34701750177 7.928561859769999 3.5523275341600002
O 5.734301345029999 1.4591477046299999 8.23554106044
O 5.709995806909999 7.91638629707 5.81169776392
O 3.5596153718099997 5.71291853523 3.22611279603
O 5.81622395517 1.03422799451 1.44539557435
O 1.14207887403 3.65143374149 7.91828585545
O 3.5589733539899995 3.67268013377 1.45878823417
O 3.2356258246899996 3.5589060882099997 5.70741025157
O 1.4515651940499998 5.815537234210001 1.02987397121
O 7.923753472349999 1.13791225899 3.64208638719
O 1.4659470639099998 3.55890482359 3.66921185003
O 5.714423098709998 3.2328354564699993 3.55098389852
O 1.0375768682299997 1.45227841023 5.81339410584
O 3.65029302497 7.921692565369999 1.13018057956
O 3.67459856309 1.46445397293 3.55402387608
O 1.1090154231899998 8.354909029769999 1.47729293397
O 8.25347605983 3.68109529049 3.2058027656499997
O 3.5810762409699994 1.0175160835100001 6.14141417455
O 1.13332383101 1.01774000123 3.2240725858299997
O 1.48752929031 1.11004373679 8.35228977843
O 3.21706560095 8.25229033079 3.6735317587900003
O 6.145946542650001 3.57741102601 1.00911195281
O 3.22635012109 1.1315153114099998 1.01364896997
O 8.35527691629 1.48248782853 1.10021444148
O 3.68557824677 3.2166714147699995 8.24630592416
O 1.0183377700299998 6.146134999630001 3.57322515044
O 1.01769862191 3.2259661620699993 1.12883694392
O 8.27557894681 1.02593124023 7.88842870603
O 1.13111831017 5.69974497951 6.159918874350001
O 5.80351812903 8.363324186489999 3.22430746545
O 8.251270538990001 8.363100268770001 6.14164905417
O 7.897065079689999 8.27079653321 1.01343186157
O 6.1675287690500005 1.12854993921 5.69218988121
O 3.23864782735 5.80342924399 8.35660968719
O 6.15824424891 8.24932495859 8.352072670030001
O 1.0293174537099998 7.89835244147 8.26550719852
O 5.699016123229999 6.164168855230001 1.11941571584
O 8.366256599969999 3.2347052703699997 5.7924964895599995
O 8.36689574809 6.1548741079300004 8.23688469608
