80

Al 1.6957888161 7.70458269316 6.702279927769999
In 6.985674271100001 7.69419407816 6.678407062769999
In 3.6506532894199997 1.34462729846 1.88260453407
In 8.94053874442 1.33423868346 1.85873166907
In 1.00925078968 3.17449765142 1.88881986803
In 6.2991362446800006 3.1641090364199997 1.86494700303
In 4.33719131584 5.8747123402 6.696064593809999
Al 9.62707677084 5.8643237252 6.672191728809999
In 0.9584215254849999 5.941887160255 -0.022909296495
In 6.248306980485 5.931498545255001 -0.046782161495
In 4.370819099515001 3.0956223197450004 4.801295591494999
Al 9.660704554515 3.0852337047450007 4.777422726495
In 1.7226516100950002 1.438735476925 4.818443321675
Al 7.0125370650950005 1.428346861925 4.794570456674999
In 3.650247594905 7.628470733075 9.621105833325
In 8.940133049905 7.618082118075001 9.597232968324999
In 0.9328414542600001 0.29891323785 9.646641387719999
Al 6.2227269092599995 0.28852462285 9.62276852272
Al 4.43997043358 8.76823357869 4.77358544156
Al 9.72985588858 8.75784496369 4.7497125765599995
In 1.78731631888 4.798886004990001 4.79798367286
Al 7.0772017738800015 4.788497389990001 4.77411080786
Al 3.5854955689600008 4.268260811549999 9.62224315642
In 8.875381023960001 4.25787219655 9.598370291419998
Al 3.6606824022950004 1.434443932845 7.582535661904999
In 8.950567857295 1.424055317845 7.558662796905
Al 1.6936182476250004 7.620111470175 2.7413581147349997
Al 6.983503702625 7.609722855175 2.7174852497349997
Ga 4.335301161445 5.934769912895 2.7346896244549996
Al 9.625186616445001 5.924381297895 2.7108167594549997
Al 1.018999488475 3.119785490125 7.589204152184999
Al 6.308884943475001 3.109396875125 7.565331287185
O 4.436026967855 6.061017287425001 8.588680230265
O 9.725912422855 6.050628672425001 8.564807365264999
O 0.9275293010250002 2.999833822355 3.783380072695
O 6.217414756025001 2.989445207355 3.759507207695
O 3.5696328359650003 1.5312854585950002 3.7760318479349997
O 8.859518290965001 1.5208968435950003 3.7521589829349997
O 1.7939234329150002 7.529565651185 8.596028455025
O 7.083808887915 7.519177036185 8.572155590025
O 2.8048088436150005 0.094522667865 6.064083284384999
O 8.094694298615 0.084134052865 6.040210419385
O 2.535695695025 8.950648568475 1.2068830284949998
O 7.825581150025001 8.940259953475 1.1830101634949999
O 5.172190948365001 4.591524291114999 1.2085979301349998
O 10.462076403365002 4.581135676114999 1.1847250651349999
O 0.168313590275 4.4536469452250005 6.0623683827449995
O 5.458199045274999 4.443258330225 6.038495517745
O 0.099124872765 7.4737696018149995 1.1452200957949998
O 5.389010327765 7.463380986814999 1.1213472307949999
O 5.240681128595 1.570926486845 5.971167611325
O 10.530566583595 1.5605378718449998 5.947294746324999
O 2.598437386615 2.9672104527650003 5.978742414245
O 7.888322841615001 2.956821837765 5.954869549244999
O 2.7413686147450003 6.077485635895 1.1376452928749998
O 8.031254069745 6.067097020895 1.1137724278749999
O 5.1842569461000005 7.551445304509999 6.11696838445
O 10.4741424011 7.541056689509999 6.093095519449999
O 0.15703344698 1.4942604729700002 1.3278988599100001
O 5.44691890198 1.48387185797 1.30402599491
O 2.80495557408 3.0246846195700003 1.31114764151
O 8.094841029080001 3.0142960045700002 1.28727477651
O 2.536334819 6.02102115791 6.133719602849999
O 7.826220274000001 6.01063254291 6.10984673785
O 1.9504363791350001 1.5575855322650003 8.353134146595
O 7.240321834135 1.5471969172650002 8.329261281594999
O 3.410762326425 7.501661954094999 3.4972233619249997
O 8.700647781425 7.491273339095 3.4733504969249998
O 0.7630154581250002 6.061568304795 3.5136913576249995
O 6.052900913125001 6.051179689795 3.4898184926249995
O 4.598183247435 2.997679181565 8.336666150894999
O 9.888068702435001 2.9872905665650005 8.312793285895
O 4.46165448826 0.02707522459 8.67506053659
O 9.751539943260003 0.01668660959 8.65118767159
O 0.9025130007400001 9.03419163941 3.83225604641
O 6.19239845574 9.02380302441 3.80838318141
O 3.5387278400000004 4.53053856637 3.83442410437
O 8.828613294999998 4.52014995137 3.81055123937
O 1.8254396490000004 4.5307282976300005 8.672892478629999
O 7.115325104000001 4.52033968263 8.64901961363
