80

Al 1.62838469438 7.342995211860001 6.43163440502
Al 6.6509644443800005 7.3179977568600005 6.4119741250199995
Al 3.46896876776 1.2708102030400001 1.8071863225200002
Al 8.491548517759998 1.24581274804 1.7875260425200001
Ga 0.9662932453800002 3.02600653628 1.81449501974
Ga 5.9888729953799995 3.0010090812800003 1.7948347397400002
Ga 4.13106021676 5.58779887862 6.4243257078
Al 9.15363996676 5.562801423620001 6.4046654277999995
Al 0.92710238923 5.672233498015 -0.01173260274
Ga 5.949682139230001 5.647236043015001 -0.03139288274
In 4.15609157577 2.9364653419850004 4.60540838774
Al 9.17867132577 2.9114678869850006 4.58574810774
Al 1.6369549637300003 1.361556349405 4.6175352875
Al 6.659534713729999 1.3365588944050002 4.5978750075
Ga 3.4821768112700004 7.260103340595 9.2277774075
Al 8.504756561270002 7.235105885595 9.2081171275
Ga 0.88097462949 0.26756479281 9.23870787435
Al 5.90355437949 0.24256733781 9.21904759435
Ga 4.238085269890001 8.354068975490001 4.58810154683
Ga 9.26066501989 8.329071520490002 4.56844126683
Al 1.7080314584900003 4.5705927201900005 4.60342393843
Al 6.730611208490001 4.54559526519 4.58376365843
Al 3.4110284408900005 4.051041048110001 9.22338548275
Ga 8.43360819089 4.026043593110001 9.20372520275
Ga 3.47544549889 1.3475498238650003 7.26561122114
Ga 8.498025248890002 1.3225523688650003 7.24595094114
Ga 1.6283767690500002 7.268588544035 2.6385041501999997
Al 6.65095651905 7.243591089035 2.6188438701999996
Al 4.13173461639 5.651427664715001 2.63099573474
Ga 9.15431436639 5.626430209715001 2.61133545474
Ga 0.97208765155 2.964710703185 7.273119636600001
Ga 5.994667401550001 2.9397132481850003 7.2534593566000005
O 4.22434078947 5.762458565885002 8.2370626696
O 9.24692053947 5.737461110885001 8.2174023896
O 0.8871002941900001 2.8564275022150003 3.62839972666
O 5.90968004419 2.8314300472150005 3.60873944666
O 3.3914816289700007 1.4463198037750002 3.6205917338400004
O 8.41406137897 1.4213223487750002 3.6009314538400004
O 1.7199594546900003 7.172566264325 8.24487066242
O 6.74253920469 7.147568809325 8.22521038242
O 2.6598430590300004 0.072673653605 5.80884562788
O 7.682422809029999 0.047676198605 5.78918534788
O 2.43262286095 8.539369085695 1.1717524799
O 7.455202610950001 8.514371630695 1.1520921999
O 4.923357696530001 4.3685523088550005 1.16793885188
O 9.945937446530001 4.343554853855001 1.1482785718800002
O 0.16910822345 4.243490430445 5.8126592559
O 5.19168797345 4.218492975445 5.7929989759
O 0.11495484263 7.135900825515001 1.10883022538
O 5.137534592629999 7.110903370515 1.08916994538
O 4.97693607239 1.4759345401849997 5.72374169184
O 9.99951582239 1.4509370851849999 5.70408141184
O 2.47221357513 2.817024511665 5.73164954378
O 7.494793325130001 2.7920270566650003 5.7119892637800005
O 2.6196773398900004 5.794810854035001 1.10092237344
O 7.642257089889999 5.769813399035001 1.08126209344
O 4.94048467363 7.18769674749 5.87301176077
O 9.963064423630001 7.16269929249 5.853351480770001
O 0.15262812693 1.4245792871100003 1.2741158113900002
O 5.17520787693 1.3995818321100002 1.25445553139
O 2.67116770463 2.8787072575100003 1.26216366509
O 7.69374745463 2.8537098025100005 1.2425033850900002
O 2.42194509593 5.733568777090001 5.88496390707
O 7.444524845930001 5.708571322090001 5.86530362707
O 1.85152313591 1.4688267127450003 8.00269819668
O 6.874102885910001 1.4438292577450003 7.98303791668
O 3.2579773060100004 7.149359469455 3.36317580644
O 8.28055705601 7.1243620144549995 3.34351552644
O 0.7398641814100001 5.7815036577550005 3.37500312884
O 5.76244393141 5.756506202755001 3.35534284884
O 4.369636260510001 2.8366825244450005 7.9908708742800005
O 9.39221601051 2.811685069445 7.9712105942800004
O 4.2312633453099995 -0.00060589151 8.31002474253
O 9.253843095310001 -0.02560334651 8.29036446253
O 0.88068086769 8.61967341151 3.6849605704700004
O 5.90326061769 8.59467595651 3.6653002904700003
O 3.37073337831 4.31082118075 3.6813466606900005
O 8.393313128310002 4.285823725749999 3.6616863806900004
O 1.7412108346900004 4.30824633925 8.31363865231
O 6.763790584690001 4.283248884250001 8.29397837231
