80

Al 7.353188647499999 2.4480440425 7.348376725
Al 2.4494807225 7.344809637499999 7.35612303
Al 7.346922757499999 7.353035902499999 2.4527464
Al 7.349825197499999 7.348238392499999 7.353105494999999
Al 2.4465782825 7.3496071474999995 2.455763935
Al 7.350286207499999 2.4528415525 2.44801763
Al 2.4528441725 2.4446152874999996 7.351394259999999
In 2.4499417324999997 2.4494127974999995 2.451035165
In 7.350284417099999 4.567326756699999 4.90024000614
Al 2.4436740521 9.4688898617 0.00762721614
Al 7.3469245479 5.238550698299999 0.00052402386
In 4.898004374079999 7.3492490006799995 4.57121029654
Al 0.00392578908 2.4408283856799997 9.469858156539999
In -0.00194536908 7.345167784319999 5.24067666846
In 4.568111260699999 4.896193684659999 7.3524550698799995
Al 9.4689167457 0.00422559966 2.44434966988
In 5.237921559299999 -0.00353435466 7.347315915119999
In 2.4494825129 5.230324433299999 4.90390065386
In 7.350287997899999 0.3383563483 -0.00420474614
In 2.4470375020999997 4.5686955117 0.00289844614
Al 4.9017625559199995 2.4484021893199994 5.23293036346
In -0.00484780908 7.34996529432 0.34031757346
In 0.00102334908 2.4456258956799997 4.56949906154
In 5.231655669299999 4.90145750534 2.45168559012
In 0.3375770843 -0.00696310966 7.35033345012
In 4.5685722707 0.00079684466 2.44736720488
In 2.4528459629 0.3301300833 4.899171883859999
In 4.89886011592 2.45319969932 0.33257126846
In 0.3313111943 4.89802875034 2.45470312512
In 7.346920967099999 9.4675211067 4.90496877614
In 4.90090681408 7.344451490679999 9.47156939154
In 9.4684557357 4.89962243966 7.34943753488
O 6.07760493238 3.8299093047799997 6.42922728738
O 3.72316745182 8.726653988619999 8.2779394939
O 8.62141515518 5.97297450398 1.5293608179
O 6.077229785619999 5.96459017762 8.27382405082
O 6.42735098128 6.076987867739999 3.83398548117
O 8.274397399879998 3.7213862816199996 8.73094017341
O 1.5265229761199999 8.619568460379998 5.976018541989999
O 8.271145967719999 6.076185365259999 5.96940745343
O 3.8312555586499997 6.425787361209999 6.08028971167
O 8.72894220525 8.27399199661 3.7268778285899997
O 5.97267846855 1.5245932431899998 8.62243202581
O 5.966541092549999 8.26975537399 6.080752083929999
O 3.7221619976199998 5.967741885219999 3.3749133726199996
O 6.0765994781799995 1.0709972013799998 1.5262011661
O 1.1783517748199999 3.8246766860199997 8.2747798421
O 3.72253714438 3.8330610123799995 1.53031660918
O 3.3724159487199996 3.72066332226 5.97015517883
O 1.5253695301199999 6.076264908379999 1.07320048659
O 8.27324395388 1.17808272962 3.82812211801
O 1.52862096228 3.7214658247399997 3.83473320657
O 5.968511371349999 3.3718638287899996 3.72385094833
O 1.07082472475 1.5236591933899997 6.07726283141
O 3.8270884614500003 8.27305794681 1.1817086341899998
O 3.83322583745 1.5278958160099998 3.72338857607
O 1.1709945673799997 8.731472409779999 1.53661449738
O 8.62397293682 3.8346859036199996 3.3698340938999998
O 3.72733657018 1.06455388898 6.4280086779
O 1.1773463206199999 1.06576458262 3.3717537208199997
O 1.53327239628 1.16856725274 8.73263334117
O 3.3677870348799996 8.62294938662 3.83832738341
O 6.42732846112 3.7276003753799998 1.0679131419899999
O 3.3712625027199996 1.1773597702599998 1.06733712343
O 8.73206104365 1.5338192762099998 1.17218431167
O 3.8348636202499997 3.3655713816099997 8.625525688589999
O 1.0660681035500001 6.42615634819 3.72981923581
O 1.0666576275500002 3.3709297789899995 1.1786817539299999
O 8.62877236262 1.06617878022 8.26752616262
O 1.1757939931799999 5.96296528638 6.4343065661
O 6.072430359819999 8.733097301019999 3.3761319820999995
O 8.622420609379999 8.73188660738 6.43238693918
O 8.26649453372 8.62908393726 1.07150731883
O 6.4319798951200005 1.1747018033799999 5.96581327659
O 3.37243846888 6.070050814619999 8.736227518009999
O 6.42850442728 8.620291419740001 8.73680353657
O 1.06770588635 8.26383191379 8.63195634833
O 5.9649033097499995 6.43207980839 1.1786149714099998
O 8.73369882645 3.3714948418099993 6.07432142419
O 8.73310930245 6.42672141101 8.62545890607
