80

Ga 7.220873289999999 2.4032896050000003 7.1991173674999995
Ga 2.4063696500000002 7.20204436 7.2168585274999995
Al 7.203615545 7.218289459999999 2.4002602024999997
Ga 7.213225065 7.210124325 7.2069583275
Ga 2.39676013 7.210209495 2.4101604025
In 7.2112637699999995 2.4114547400000004 2.3924192425
In 2.4140178750000003 2.3952096400000005 7.209017567499999
Ga 2.404408355 2.4033747750000005 2.4023194424999996
Ga 7.212764496799999 4.483924771540001 4.79915559972
Ga 2.3886513368 9.290844661540001 0.01019863472
Ga 7.2021148182 5.14581942846 -0.00647615472
In 4.804339150140001 7.2107221391800005 4.4817038925
Al 0.01474148014 2.3876423191800002 9.290461257499999
Ga -0.00120937014 7.20153171582 5.1453150375
In 4.486755301780001 4.802117544880001 7.208661161099999
In 9.29164942178 0.01152792488 2.3842218761
Ga 5.14813586322 -0.00361829988 7.199473773899999
Ga 2.4048689232000005 5.129574328460001 4.81012217028
In 7.2097630432 0.3389847084600001 -0.01431711472
In 2.3962995618000003 4.484009941540001 0.00235767472
Ga 4.81329426986 2.40277696082 5.1275738775
Ga -0.01081889014 7.20969685082 0.3386169125
Ga 0.00513196014 2.3958074541800003 4.4837631325
Al 5.130878118220001 4.81138155512 2.4006166088999996
Ga 0.34128044822 -0.01169826488 7.209373973899999
Ga 4.4847940067800005 0.00344795988 2.3941220761
Ga 2.4125171482 0.32273960846 4.802281210279999
In 4.80368474986 2.41094209582 0.3208757525
Ga 0.32402270322 4.80330159012 2.4105168088999998
Ga 7.2051162718 9.290759491540001 4.80699655972
Ga 4.81394867014 7.20255700418 9.2884020175
In 9.29361071678 4.81019750988 7.1987609611
O 5.96712749289 3.7582512505200003 6.30024332272
O 3.6558018482100003 8.55813749656 8.120154873719999
O 8.45374816259 5.8663979052399995 1.49181575228
O 5.96740604631 5.850961097680001 8.110980476279998
O 6.304625150120001 5.96469083131 3.75557166175
O 8.125283454160002 3.6522830975500002 8.55478365075
O 1.4979824088400002 8.45260492185 5.865269543449999
O 8.116192536880002 5.964168899290001 5.847569569049999
O 3.76084226813 6.302760917870001 5.962851058119999
O 8.56020938093 8.12213000239 3.6486839590799995
O 5.86927640447 1.4952031924100002 8.45017663592
O 5.853755496470001 8.11365363733 5.961482771879999
O 3.65050592711 5.85524784948 3.3090344472799993
O 5.96183157179 1.0553616034400002 1.4891228962799998
O 1.1638852574099998 3.7471011947600004 8.11746201772
O 3.6502273736900004 3.7625380023200004 1.4982972937199999
O 3.3130082698799996 3.64880826869 5.853706108249999
O 1.4923499658400001 5.9612160024500005 1.05449411925
O 8.119651011160002 1.16089417815 3.7440082265499997
O 1.5014408831200001 3.64933020071 3.76170820095
O 5.85679115187 3.3107381821299997 3.64642671188
O 1.0574240390700003 1.49136909761 5.96059381092
O 3.74835701553 8.118295907590001 1.15910113408
O 3.7638779235300004 1.49984546267 3.6477949981199997
O 1.14301433289 8.56517114052 1.51128635772
O 8.46069596821 3.7675478765600006 3.2957155887199994
O 3.66415049259 1.0433180852400001 6.30057311728
O 1.15858933631 1.04421154768 3.3063415912799994
O 1.51502748012 1.14161101131 8.56432902675
O 3.30117029416 8.45920298755 3.76582668575
O 6.302876528840001 3.66201530185 1.04083025845
O 3.30737582688 1.15741934929 1.04293068405
O 8.56573638813 1.5121712978700002 1.1384117731199999
O 3.77061171093 3.29905018239 8.45744132408
O 1.04516324447 6.3021230824100005 3.6612196709199996
O 1.0449387864700002 3.3069040873299995 1.15684388688
O 8.47461908711 1.0483279594800001 8.097991412279999
O 1.15693745179 5.84595122344 6.31356218128
O 5.9534829274100005 8.570181014760001 3.3087046527199995
O 8.45904408369 8.569287552320002 6.30293617872
O 8.10260593988 8.471888088690001 1.04494874325
O 6.31646312584 1.1542961124500002 5.84345108425
O 3.31475689116 5.951483798150001 8.56844751155
O 6.310257593120001 8.45607975071 8.56634708595
O 1.05189703187 8.10132780213 8.470865996879999
O 5.847021709070001 6.31444891761 1.15183644592
O 8.57247017553 3.3113760175899998 5.94805809908
O 8.572694633530002 6.306595012670001 8.45243388312
