80

Ga 10.869788355445001 7.368375e-06 1.188596353585
Ga 10.869779870445 3.118944583375 1.188601798585
Ga 23.167675960445 1.6543375e-05 1.1673439185849999
Ga 23.167667475445 3.118953758375 1.1673493635849999
Ga -0.0791762504450001 -2.933375e-06 4.682418611415
In -0.079184735445 3.1189342816249996 4.682424056415
Ga 12.218711354555 6.241625e-06 4.661166176415
Ga 12.218702869554999 3.118943456625 4.661171621415
Al 4.720840310444999 1.559471388375 1.1992252935849999
Al 4.720831825445 4.678408603375001 1.1992307385849998
Al 17.018727915444998 1.559480563375 1.1779728585849998
In 17.018719430445 4.6784177783750005 1.1779783035849998
Al 6.069763309554999 1.5594702616249998 4.671795116415
Ga 6.069754824555 4.678407476625 4.671800561415
In 18.367650914554996 1.559479436625 4.650542681415
Ga 18.367642429554998 4.6784166516250005 4.650548126415
Ga 9.308528240305 1.559473072035 4.024224861065
In 9.308519755305 4.678410287035001 4.024230306065
Ga 21.606415845304998 1.559482247035 4.002972426065
Ga 21.606407360305 4.678419462035 4.002977871065
In 1.482075379695 1.559468577965 1.8467955489349999
Ga 1.482066894695 4.678405792965001 1.8468009939349999
Ga 13.779962984695 1.5594777529650001 1.825543113935
Al 13.779954499695 4.678414967965001 1.825548558935
Al 3.1595886803049997 -1.22965e-07 4.034848356065
Al 3.1595801953049993 3.118937092035 4.034853801065
Ga 15.457476285304999 9.052035e-06 4.013595921065
Al 15.457467800305 3.118946267035 4.013601366065
In 7.631023424695001 4.557965e-06 1.836166608935
Ga 7.631014939695 3.1189417729649995 1.836172053935
In 19.928911029695 1.3732965e-05 1.8149141739349999
In 19.928902544695003 3.1189509479649997 1.8149196189349999
O 9.511673655834999 5.516345e-06 2.5573450900549997
O 9.511665170834998 3.1189427313449998 2.557350535055
O 21.809561260834997 1.4691345e-05 2.536092655055
O 21.809552775834998 3.118951906345 2.536098100055
O 1.2789384491649998 -1.081345e-06 3.3136698749449995
O 1.2789299641649998 3.1189361336549997 3.3136753199449993
O 13.576826054165 8.093655e-06 3.2924174399449995
O 13.576817569165 3.118945308655 3.2924228849449997
O 3.3627256108349997 1.559469536345 2.567974030055
O 3.362717125835 4.678406751345 2.567979475055
O 15.660613215834998 1.559478711345 2.5467215950549997
O 15.660604730834999 4.678415926345 2.546727040055
O 7.427878009165002 1.5594721136549998 3.3030463799449996
O 7.4278695241650015 4.678409328655 3.3030518249449994
O 19.725765614165 1.5594812886549998 3.2817939449449995
O 19.725757129165 4.678418503655001 3.2817993899449993
O 8.927260955175 3.442525e-06 5.226372202775
O 8.927252470175 3.118940657525 5.226377647775
O 21.225148560174997 1.2617525e-05 5.205119767775
O 21.225140075175 3.118949832525 5.205125212775
O 1.863351149825 9.92475e-07 0.6446427622249999
O 1.863342664825 3.118938207475 0.6446482072249999
O 14.161238754825 1.0167475e-05 0.623390327225
O 14.161230269825 3.118947382475 0.623395772225
O 2.778312910175 1.559467462525 5.237001142775
O 2.7783044251750004 4.678404677525 5.237006587774999
O 15.076200515174998 1.559476637525 5.215748707775
O 15.076192030175 4.678413852525 5.215754152775
O 8.012290709825 1.5594741874749998 0.634019267225
O 8.012282224825 4.6784114024750005 0.634024712225
O 20.310178314825 1.559483362475 0.612766832225
O 20.310169829825 4.678420577475 0.6127722772249999
O -1.07071838858 1.5594651223799998 4.3778723909599995
O -1.07072687358 4.6784023373800006 4.37787783596
O 11.22716921642 1.5594742973799998 4.356619955959999
O 11.22716073142 4.67841151238 4.35662540096
O 11.86132200858 1.55947652762 1.49314801904
O 11.86131352358 4.67841374262 1.49315346404
O 24.159209613579996 1.55948570262 1.4718955840399999
O 24.159201128579998 4.67842291762 1.4719010290399999
O 5.07822965642 1.10238e-06 4.367243450959999
O 5.078221171419999 3.1189383173799996 4.3672488959599995
O 17.376117261420003 1.027738e-05 4.34599101596
O 17.376108776420004 3.11894749238 4.3459964609599995
O 5.71238244858 3.33262e-06 1.5037715140399999
O 5.712373963579999 3.11894054762 1.5037769590399999
O 18.010270053579998 1.250762e-05 1.48251907904
O 18.01026156858 3.11894972262 1.48252452404
