80

Al 7.562061942500001 2.5160158325000004 7.56931456
In 2.5196202475000002 7.5597758125 7.570330654999999
In 7.564813022500001 7.5621376675 2.529037355
Al 7.562783662500001 7.5591125625 7.5722925299999995
Al 2.5216496075 7.5628009175 2.5270754799999997
Al 7.5640913025000005 2.5190409375000002 2.526059385
Al 2.5188985275 2.5166790825000005 7.5673526849999995
In 2.5209278875 2.5197041875000004 2.52409751
In 7.5633884055400005 4.696146172360001 5.04897345554
In 2.5229760705400004 9.74293125736 0.00673437554
In 7.565515919460001 5.385032432640001 0.00612328446
In 5.04235463148 7.561162447140001 4.7067426531
In -0.00355986352 2.51570386214 9.745057983099999
In -0.00108477648 7.56141428286 5.3906634819
In 4.69790598278 5.0379409235 7.569689199999999
In 9.742377037779999 -0.0027939515 2.5254179299999997
In 5.383054487220001 -0.0052460085 7.566978044999999
In 2.5203231444600003 5.382670577640001 5.04741658446
In 7.5647941994600005 0.3419357026400001 0.00314531446
In 2.5222543505400004 4.69983452736 0.00375640554
In 5.04135691852 2.51765430286 5.3896473869
In 0.00094458352 7.56443938786 0.3474083069
In -0.00153050352 2.51872896714 4.7018028081
In 5.38580556722 5.0408758265 2.5267008399999997
In 0.33989107222 -0.0045827585 7.56501617
In 4.69921362278 -0.0021307015 2.523456055
In 2.5196014244600002 0.3395738476400001 5.04443861446
In 5.04338627852 2.52067940786 0.3463922119
In 0.3426421522200001 5.041539076499999 2.5247389649999996
In 7.564110125540001 9.73924290236 5.0519514255399995
In 5.04032527148 7.558137342140001 9.7499978281
In 9.741069397779999 5.0372776735 7.571651074999999
O 6.25142449932 3.9389102751000005 6.62151228714
O 3.8306647407600005 8.98118792562 8.519812502939999
O 8.87621350504 6.140380664379999 1.5805756820599999
O 6.250976129880001 6.1365630099 8.519074627859998
O 6.615938373760001 6.25020412909 3.9500922096499997
O 8.5097920322 3.8262432116900005 8.99265562405
O 1.5722654522000001 8.87195873291 6.148538135349999
O 8.51128301684 6.248635801310001 6.14968913095
O 3.9421842807700007 6.61227311806 6.25907769989
O 8.98659315529 8.50926628894 3.84139680761
O 6.13922654251 1.56731415646 8.87944779839
O 6.141274896430001 8.50818831154 6.261052794109999
O 3.8322870506800006 6.1399064749 3.4748777528599994
O 6.253046809240001 1.09762882438 1.57657753706
O 1.2074980449600001 3.9384360856200002 8.515814357939998
O 3.8327354201200006 3.9422537401000004 1.57731541214
O 3.4677731762399997 3.82861262091 6.146297830349999
O 1.5739195178 6.25257353831 1.10373441595
O 8.5114460978 1.2068580170899998 3.94785190465
O 1.57242853316 3.8301809486900003 3.94670090905
O 6.14152726923 3.4665436319399996 3.83731234011
O 1.09711839471 1.5695504610600002 6.2549932323899995
O 3.944485007490001 8.51150259354 1.21694224161
O 3.9424366535700006 1.5706284384600002 3.83533724589
O 1.21101216432 8.9856953601 1.57927320714
O 8.87513579576 3.9404530506200004 3.4755412329399995
O 3.8302990100400005 1.0949220793799999 6.61889101206
O 1.20912035488 1.0971546348999999 3.4708796078599993
O 1.57002387876 1.2047455440900001 8.98840753965
O 3.4693796972 8.873028296690002 3.95041654405
O 6.6167365072000015 3.8312238579100004 1.1042668653499998
O 3.46942724184 1.20922742631 1.1014941109499998
O 8.986655335770001 1.57153824306 1.2148064298899999
O 3.9406786602900006 3.4638077039399997 8.87971213761
O 1.09881420751 6.61409924146 3.83720871839
O 1.09941912143 3.46877993654 1.21285777411
O 8.87269938568 1.0931213899 8.51711683286
O 1.2085757542400002 6.13836369938 6.62084880706
O 6.25341253996 8.983894670620002 3.4774990279399995
O 8.87459119512 8.9816621151 6.62551043214
O 8.51368767124 8.87407120591 1.10798250035
O 6.614331852800001 1.2057884533099998 6.14597349595
O 3.4669750428 6.24759289209 8.992123174649999
O 6.614284308160001 8.86958932369 8.99489592905
O 1.09705621423 8.50727850694 8.881583610109999
O 6.143032889710001 6.615009046060001 1.2166779023899998
O 8.984897342490001 3.46471750854 6.25918132161
O 8.98429242857 6.610036813460001 8.883532265889999
