40

Ga 0.9528187878999999 5.76802585422 -0.01675382776
Ga 4.237749712099999 2.9827731307799996 4.667870457759999
Ga 1.6732332003400001 1.3852924606199999 4.68457458224
Ga 3.51733529966 7.365506524379999 -0.03345795224
Ga 3.54633671164 1.3696442392600001 7.37038726061
Ga 1.67232970828 7.392427296399999 2.6717650361899996
Ga 4.21514973824 5.74303013526 2.6617930506099996
Al 1.00351668168 3.0190414004 7.38035924619
Ga 1.67754640274 7.470784979619999 6.5224393759299994
Ga 3.5323088227799997 1.2877516098399997 1.82914424487
Ga 0.99042701906 3.0775542988199995 1.83882511093
Ga 4.219428206460001 5.680982290639999 6.512758509869999
Ga 0.9087135448800001 0.27710586171 9.377622602699999
Ga 4.33070813296 8.493292436109998 4.6467581308999995
Ga 1.75118000136 4.64932332051 4.6681201677
Ga 3.4882416764800004 4.12107497731 9.3562605659
O 4.3170221158799995 5.85975414548 8.35278194517
O 0.912021933 2.9064807712599996 3.68048457003
O 3.4562493023200003 1.4676919018799999 3.67007590517
O 1.77279474656 7.29854301486 8.36319061003
O 2.71273123708 0.07328873752 5.89341050057
O 2.49046664156 8.682577003699999 1.18085456503
O 5.01592948608 4.43567757752 1.17626829057
O 0.18726839256 4.320188163699999 5.89799677503
O 5.0446395839800005 7.306539346969999 5.95096940165
O 0.1594394141 1.44967988887 1.29235253155
O 2.7231349779 2.92430572217 1.27590313665
O 2.4809440201799995 5.83191351367 5.96741879655
O 0.13102945676 7.259071502619999 1.12098990451
O 5.071385204599999 1.4964800211599998 5.80300238989
O 2.5266887221600003 2.86506612662 5.8135566145099995
O 2.6757259392 5.89048539716 1.11043567989
O 1.8961511180999997 1.4964096984400002 8.1207773838
O 3.3302495724599996 7.268764734439999 3.4053185285999996
O 0.7671404000600001 5.881892356039999 3.4215859737999996
O 4.459260290499999 2.88328207684 8.1045099386
O 4.313946004659999 -0.00227973231 8.43049353503
O 0.9157833593400001 8.76878958931 3.73426165497
O 3.4403079776200003 4.38148463529 3.72996650003
O 1.7894213863800001 4.385025221709999 8.43478868997
