80

Ga 1.65043119963 7.485100327019999 6.538848556499999
Ga 6.77974557963 7.468392337019999 6.518508291499999
Ga 3.5405238955899994 1.3014244661199996 1.83764937772
Al 8.669838275590001 1.2847164761199996 1.81730911272
Al 0.9816059215100001 3.08452729778 1.84404464936
In 6.11092030151 3.06781930778 1.82370438436
Al 4.20934917371 5.701997495360001 6.532453284859999
Ga 9.338663553710001 5.68528950536 6.512113019859999
Al 0.9368423437 5.77812181693 -0.015937236375
Al 6.066156723700001 5.761413826929999 -0.036277501375
Ga 4.2394683113 3.00075767807 4.683579356375
Ga 9.3687826913 2.98404968807 4.663239091375
Al 1.6695833206600001 1.39250877235 4.697187975995
Al 6.7988977006599995 1.37580078235 4.676847710994999
In 3.5438959643400003 7.405775032649999 9.383793774005
Al 8.673210344340001 7.389067042649999 9.363453509005
Al 0.8997086360100001 0.28015452327 9.39994850295
In 6.029023016009999 0.2634465332699999 9.379608237949999
In 4.31369631173 8.51809047311 4.662206567789999
Al 9.443010691730002 8.50138248311 4.64186630279
Al 1.7365378593300003 4.66065492291 4.68059916949
Al 6.865852239330001 4.64394693291 4.66025890449
Al 3.47686708841 4.137590073469999 9.38155590125
In 8.60618146841 4.120882083469999 9.36121563625
In 3.5472927398300005 1.38321021563 7.391431280775
In 8.676607119829999 1.36650222563 7.371091015775
Al 1.65035270879 7.406807353309999 2.6794677868449996
Al 6.779667088789999 7.390099363309998 2.6591275218449995
Al 4.209725274229999 5.76427868693 2.6727735163249995
Al 9.339039654230001 5.7475706969300004 2.6524332513249997
Al 0.98792017439 3.02573888201 7.398125551295
In 6.11723455439 3.00903089201 7.3777852862949995
O 4.3044008088500005 5.881234410889999 8.376748319235
O 9.43371518885 5.864526420889999 8.356408054234999
O 0.90112438933 2.9128968717699997 3.689778749945
O 6.030438769330001 2.8961888817699997 3.669438484945
O 3.4611788418100002 1.4812294533099999 3.682635981105
O 8.590493221810002 1.4645214633099999 3.662295716105
O 1.7443463563700001 7.3129018293499986 8.383891088075
O 6.873660736370001 7.296193839349999 8.363550823075
O 2.7165248254100005 0.08250658421 5.910143801275
O 7.84583920541 0.06579859421 5.889803536275
O 2.46937533613 8.70137922277 1.186139943265
O 7.59868971613 8.68467123277 1.165799678265
O 5.02033796141 4.4582284987100005 1.1849771520249999
O 10.149652341410002 4.44152050871 1.164636887025
O 0.16556220013 4.325657308269999 5.9113065925149995
O 5.2948765801299995 4.308949318269999 5.890966327515
O 0.10493381085 7.268024469569999 1.1232544866449998
O 5.23424819085 7.25131647957 1.1029142216449999
O 5.08037165261 1.5155508684499999 5.822415823815
O 10.20968603261 1.4988428784499999 5.802075558815
O 2.5200899044500003 2.87693120427 5.829708092094999
O 7.649404284450002 2.86022321427 5.8093678270949995
O 2.66521555901 5.9066441337499995 1.115962218365
O 7.79452993901 5.88993614375 1.0956219533649998
O 5.033131149900001 7.332354034049999 5.970335942309999
O 10.1624455299 7.315646044049999 5.94999567731
O 0.15343804698 1.45188105051 1.29538791557
O 5.282752426980001 1.43517306051 1.2750476505700001
O 2.72292527018 2.9371275616099997 1.28204091997
O 7.8522396501800005 2.9204195716099997 1.26170065497
O 2.4636439267 5.847107522949999 5.983682937909999
O 7.592958306700001 5.83039953295 5.96334267291
O 1.88870055796 1.5043730541699998 8.141432420814999
O 7.01801493796 1.4876650641699998 8.121092155814999
O 3.3148175342000004 7.288710395749999 3.4167743083449995
O 8.444131914200002 7.272002405749999 3.3964340433449998
O 0.7456144306000001 5.8913227379499995 3.429934429645
O 5.8749288106 5.874614747949999 3.4095941646449996
O 4.45790366156 2.9017607119699997 8.128272299514999
O 9.587218041560002 2.8850527219699997 8.107932034514999
O 4.32158700064 0.01228188469 8.45498251803
O 9.450901380640003 -0.00442610531 8.434642253029999
O 0.88445855836 8.78212105831 3.74333130597
O 6.01377293836 8.76541306831 3.7229910409699998
O 3.4349665922800003 4.39839616897 3.74246751361
O 8.56428097228 4.381688178969999 3.72212724861
O 1.7710789667200002 4.39600677403 8.45584631039
O 6.9003933467200005 4.3792987840299995 8.43550604539
