80

Al 1.7398715580099997 7.886302017539999 6.83634382358
In 7.1602287130099995 7.877401377539999 6.80811268858
Al 3.7416102930099995 1.37804018306 1.9186149966400001
Al 9.16196744801 1.36913954306 1.8903838616400002
In 1.03444578579 3.2487482868999993 1.9253921243200003
Al 6.45480294079 3.2398476468999995 1.89716098932
Al 4.44703606523 6.0155939137 6.8295666959
In 9.86739322023 6.0066932737 6.8013355609
In 0.9800620408649999 6.0776029328000005 -0.028957795945
In 6.400419195865 6.0687022928 -0.057188930945
Al 4.481057169134999 3.1716037972000004 4.897014565945001
In 9.901414324134999 3.1627031572000006 4.868783430945
Al 1.768133101875 1.47609653192 4.917814652885
Al 7.188490256874999 1.4671958919199999 4.889583517885001
In 3.744667938125 7.81152509808 9.815475747115
Ga 9.165025093125 7.8026244580799995 9.787244612115
In 0.9626977844100001 0.31404817518 9.849535698390001
In 6.38305493941 0.30514753518 9.821304563390001
In 4.54999989193 8.97349662502 4.86402423435
In 9.97035704693 8.964595985019999 4.83579309935
Al 1.83325601283 4.91283098022 4.89412452225
In 7.253613167829999 4.90393034022 4.86589338725
In 3.67944166351 4.374713819979999 9.81943541049
In 9.09979881851 4.365813179979999 9.791204275490001
In 3.755960870365 1.47464287534 7.738896900465001
In 9.176318025365001 1.46574223534 7.710665765465
In 1.734823710055 7.79661400726 2.791803973155
In 7.155180865054999 7.78771336726 2.763572838155
In 4.442226955514999 6.07372830214 2.784445582915
In 9.862584110514998 6.06482766214 2.756214447915
Ga 1.048557624905 3.1975285804599998 7.746255290705001
In 6.468914779905 3.18862794046 7.718024155705001
O 4.5496101983449995 6.2077499216200005 8.761945979885
O 9.969967353345 6.19884928162 8.733714844885
O 0.952130930035 3.07165091978 3.8601844232950002
O 6.372488085034999 3.06275027978 3.8319532882950003
O 3.659892282855 1.5704988127400001 3.8519541392150005
O 9.080249437855 1.5615981727400001 3.8237230042150006
O 1.841848845525 7.708902028659999 8.770176263965
O 7.2622060005249995 7.700001388659999 8.741945128965
O 2.878329667705 0.10264023538 6.190083647205
O 8.298686822705 0.09373959538 6.161852512205001
O 2.596123454435 9.156477538819999 1.223203399335
O 8.016480609434998 9.147576898819999 1.194972264335
O 5.299110042455 4.69887745738 1.2265983664550002
O 10.719467197454998 4.689976817380001 1.198367231455
O 0.175343079685 4.56024031682 6.186688680085
O 5.595700234684999 4.55133967682 6.1584575450850005
O 0.099898641535 7.645084927139999 1.1632257936350001
O 5.5202557965349985 7.63618428714 1.134994658635
O 5.3737275713249995 1.6134182086599997 6.092217514825
O 10.794084726325 1.60451756866 6.063986379825001
O 2.665846849385 3.0406591163399996 6.100738430185
O 8.086204004385001 3.03175847634 6.072507295185
O 2.807779363475 6.217844019460001 1.154704878275
O 8.228136518474999 6.208943379460001 1.126473743275
O 5.314019314099999 7.7303387173199996 6.23624375287
O 10.734376469099999 7.721438077319999 6.208012617870001
O 0.16136408098 1.52947052508 1.3546174990100002
O 5.58172123598 1.52056988508 1.3263863640100002
O 2.8740792522799996 3.09563319148 1.3343260168100002
O 8.29443640728 3.0867325514800004 1.3060948818100002
O 2.6013041427999997 6.16417605092 6.25653523507
O 8.0216612978 6.15527541092 6.228304100070001
O 2.004041991535 1.6006671587599999 8.526924969145
O 7.424399146534999 1.5917665187599999 8.498693834145
O 3.494908318025 7.676659278039999 3.5624828180150003
O 8.915265473025 7.66775863804 3.534251683015
O 0.7823423581250001 6.20288561084 3.582411011115
O 6.202699513124999 6.193984970840001 3.554179876115
O 4.716607951434999 3.07444082596 8.506996776045
O 10.136965106435001 3.06554018596 8.478765641045001
O 4.57794714972 0.03637137488 8.85507270923
O 9.99830430472 0.02747073488 8.82684157423
O 0.9245175242799999 9.24356727512 3.9051709647700004
O 6.34487467928 9.23466663512 3.8769398297700004
O 3.62726537406 4.638144794959999 3.9091471944500005
O 9.047622529059998 4.629244154959999 3.8809160594500005
O 1.8751992999400002 4.64179385504 8.851096479550002
O 7.29555645494 4.63289321504 8.822865344550001
