30

Al -0.00286195528136 0.00421286504696 2.05894405195272
Ga -0.01254092528136 0.01846053504696 9.022175741952719
Al -0.01649598471864 0.02428247495304 11.86751932804728
Al -0.00681701471864 0.01003480495304 4.90428763804728
In 2.574913647537704 1.5340180701758825 6.701433862261508
In 2.565234677537704 1.5482657401758826 13.664665552261507
In 2.580637558100424 1.5255923400819624 2.583545758356068
In 2.570958588100424 1.5398400100819625 9.546777448356067
Ga -0.0403261281004242 3.0211258699180377 11.337221801643931
Al -0.0306471581004242 3.0068781999180376 4.3739901116439315
In -0.0346022175377042 3.0127001398241178 7.2193336977384925
Ga -0.0249232475377042 2.9984524698241177 0.2561020077384918
O 3.597243647692 0.036740494218 3.4862646272164
O 0.7793408231932001 1.3913265934532002 3.4798708735848
O -1.8314335558852 3.1115272873288 3.4730162141988
O 1.7609706068068 3.1553916165468 10.440896686415199
O -0.8212703141148001 1.3924934726712002 10.4410493358012
O 1.5764137123080002 0.034452295782 10.4469007627836
O 0.9820039505110639 1.5238482493469223 8.122052427525187
O 3.3571164260122637 2.921131798582122 8.122360683893588
O 3.3796879769338637 0.1658070724577223 8.127903854507588
O 1.798434779625864 0.1384786116757223 1.162618936723988
O 1.7758632287042642 2.893803337800122 1.1570757661099882
O 4.173547255127064 1.5357621609109224 1.1629271930923881
O -1.6332358251270638 3.010956049089078 12.757840366907612
O 0.741876650374136 4.408239598324277 12.758148623276012
O 0.7644482012957359 1.6529148721998779 12.763691793890011
O -0.8168049960122639 1.6255864114178777 5.798406876106412
O -0.8393765469338639 4.380911137542278 5.792863705492412
O 1.5583074794889358 3.022869960653078 5.798715132474812
