80

Al 7.044098665 2.3470355675 7.0191083125
In 2.346018585 7.0250558775 7.0382468275
Al 7.023169535 7.043036252499999 2.3388117975
Al 7.034265765 7.0350547274999995 7.0269286875
Al 2.334922355 7.0330374025 2.3501299374999998
Ga 7.033002435 2.3550170925 2.3309914225
In 2.355851485 2.3370367174999997 7.0304264524999995
Al 2.344755255 2.3450182424999997 2.3423095625
Al 7.0343027372 4.37625060712 4.6784282694999995
Ga 2.3251264272000003 9.062252442119998 0.0094498945
In 7.0218692328 5.02180273788 -0.0086250495
In 4.683839516360001 7.034588808699999 4.36973736398
Al 0.01652146636 2.3285892737 9.06135201898
In -0.00289857636 7.0235044713 5.01863940102
Al 4.37625781676 4.6853658007 7.02944720352
Al 9.06324166676 0.0153270157 2.32219179852
Ga 5.0236923332400005 -0.0012935157 7.02008756148
Al 2.3447182828 5.00382236288 4.6908099805
Al 7.0317021328 0.33378357788 -0.0164454245
In 2.3349593272 4.3742332821200005 0.0016295195
Ga 4.695181503640001 2.3454841613 4.99950088602
Al -0.01399480636 7.0314859963 0.33052251102
Al 0.00542523636 2.3365707987 4.37323512898
Al 5.002763203240001 4.6947071693 2.33979104648
Al 0.3354451532400001 -0.0112923657 7.03140570148
In 4.37499448676 0.0053281657 2.3335099385199998
Al 2.3545511828000003 0.31580320288 4.6829896054999995
Al 4.684085273640001 2.3534656863 0.31138399602
Al 0.3145160232400001 4.684708319299999 2.35110918648
Ga 7.0244698372 9.064269767119999 4.6862486445
In 4.6949357463600006 7.026607283699999 9.057854253979999
Al 9.06450499676 4.695364650699999 7.01812906352
O 5.820295429160001 3.66795779632 6.14289039933
O 3.56427606524 8.34817645492 7.918875432169999
O 8.24280058836 5.72511507708 1.45229776003
O 5.820180467240001 5.708933096679999 7.90903203347
O 6.147464756020001 5.82002069705 3.6609552733
O 7.9260617177 3.56554954285 8.34106276266
O 1.4589424243 8.24431186535 5.72035897234
O 7.915083651980001 5.820300319749999 5.7007186167
O 3.6670678551600004 6.148603147619999 5.81467449012
O 8.346291674360002 7.925128333779999 3.55600070392
O 5.72674656524 1.46079309322 8.239740188879999
O 5.7074464552399995 7.91565785038 5.81268024208
O 3.55872559084 5.712115173679999 3.22634785067
O 5.814744954760001 1.03189651508 1.4503628178299999
O 1.13622043164 3.6549578929199997 7.916940489969999
O 3.55884055276 3.67113987332 1.46020621653
O 3.23155626398 3.5600522729499997 5.7082829767
O 1.4529593023 5.814523427149999 1.02817548734
O 7.920078595700001 1.1357611046499998 3.64887927766
O 1.46393736802 3.55977265025 3.6685196333
O 5.71195316484 3.2314698223799994 3.5545637598799997
O 1.03272934564 1.4549446362199998 5.81323754608
O 3.65227445476 7.919279876779999 1.1294980611199998
O 3.67157456476 1.4644151196199997 3.55655800792
O 1.11111911916 8.35395963132 1.47391202433
O 8.251259915240002 3.6781376699199995 3.2116200271699995
O 3.57548253836 1.0191155420799998 6.14391241503
O 1.13066995724 1.0188966116799998 3.2244129084699997
O 1.48014670602 1.1140211620499998 8.3525699283
O 3.2168854077 8.25155137785 3.67208438766
O 6.1459262743 3.5742730803500002 1.01310356734
O 3.22557314198 1.1302638347499998 1.0160994917
O 8.354051705160002 1.4785643626199998 1.1074190851199999
O 3.67897362436 3.219128798779999 8.24761535892
O 1.01757025524 6.146794928219999 3.57076181388
O 1.01793594524 3.2256213653799994 1.12806111708
O 8.267901900840002 1.0261133386799999 7.89532622567
O 1.12776110476 5.70193530008 6.15761822283
O 5.80353848164 8.36095742792 3.2253258349699996
O 8.248351062760001 8.36117635832 6.14482534153
O 7.89887431398 8.26605180795 1.0166683216999999
O 6.162135612300001 1.1285215921499998 5.6971538623399995
O 3.2330947457000003 5.80579988965 8.35613468266
O 6.153447878020001 8.24980913525 8.3531387583
O 1.0249693148399999 7.901508607379999 8.26181916488
O 5.7000473956399995 6.16094417122 1.12162289108
O 8.36145076476 3.2332780417799993 5.79847643612
O 8.361085074760002 6.154451604619999 8.241177132919999
