60

Al -0.00096696005 0.00119574685 1.9229558814999999
Al 4.875005464949999 0.01350704685 1.9240821815
Al -0.00430130505 0.00531901185 8.5538382315
Al 4.871671119949999 0.01763031185 8.554964531500001
Al -0.00570172995 0.00705078315 11.3388088185
Al 4.870270695049999 0.01936208315 11.3399351185
Al -0.00236738495 0.00292751815 4.7079264685
Al 4.873605040049999 0.01523881815 4.7090527685
Al 2.43122727775333 1.41758529379237 6.3434234243613705
Al 7.307199702753329 1.42989659379237 6.344549724361371
Al 2.4278929327533296 1.42170855879237 12.97430577436137
Al 7.303865357753329 1.4340198587923698 12.97543207436137
Al 2.43316119785333 1.41519380009237 2.49751166136137
In 7.309133622853329 1.42750510009237 2.49863796136137
Al 2.4298268528533296 1.4193170650923699 9.12839401136137
In 7.305799277853329 1.4316283650923698 9.12952031136137
Al -0.0125436128533298 2.82166778990763 10.76277792863863
Al 4.86342881214667 2.83397908990763 10.76390422863863
Al -0.0092092678533298 2.81754452490763 4.13189557863863
Al 4.86676315714667 2.82985582490763 4.133021878638631
Al -0.0106096927533298 2.81927629620763 6.9168661656386305
Al 4.86536273224667 2.83158759620763 6.91799246563863
Al -0.0072753477533298 2.81515303120763 0.28598381563863
Al 4.86869707724667 2.8274643312076297 0.28711011563863
O 1.475752472275 0.0057919564 3.3157824439000003
O 6.351724897274999 0.0181032564 3.3169087439
O 1.6901513611749996 2.9494063293199995 3.31441302333
O 6.566123786175 2.9617176293199994 3.3155393233300003
O 9.00832577405 1.3042242717799999 3.3169055477700002
O 4.132353349049999 1.2919129717799998 3.31577924777
O 0.7304662238249999 1.2874552606799998 9.94587656667
O 5.606438648825 1.29976656068 9.947002866670001
O -1.7117357640499997 2.9449486182199993 9.94451034223
O 3.1642366609499994 2.9572599182199992 9.945636642230001
O 3.393551262724999 0.0147658736 9.9471085561
O 8.269523687725 0.0270771736 9.948234856100001
O 3.90794671007833 1.42218150334237 7.73624998676137
O 8.78391913507833 1.43449280334237 7.7373762867613705
O 1.6950593239783298 0.13718081626237 7.73635567619137
O 6.57103174897833 0.14949211626237 7.73748197619137
O 1.6885751618533298 2.69599121872237 7.73512049063137
O 6.564547586853329 2.70830251872237 7.7362467906313706
O 3.1693291516283297 2.6955982776223704 1.1045794095313701
O 8.045301576628328 2.7079095776223703 1.10570570953137
O 3.1758133137533298 0.13678787516237 1.10581459509137
O 8.051785738753328 0.14909917516237 1.1069408950913702
O 0.95644176552833 1.41059759054237 1.1046850989613701
O 5.83241419052833 1.42290889054237 1.10581139896137
O 1.4641758194716699 2.8262639994576295 12.15560449103863
O 6.34014824447167 2.83857529945763 12.15673079103863
O -0.74871156662833 1.5412633123776298 12.155710180468631
O 4.1272608583716694 1.55357461237763 12.15683648046863
O -0.7551957287533297 4.100073714837629 12.15447499490863
O 4.120776696246669 4.112385014837629 12.15560129490863
O 0.7255582610216699 4.09968077373763 5.52393391380863
O 5.60153068602167 4.111992073737629 5.52506021380863
O 0.73204242314667 1.5408703712776302 5.525169099368631
O 5.608014848146669 1.55318167127763 5.52629539936863
O -1.4873291250783298 2.8146800866576296 5.524039603238631
O 3.38864329992167 2.8269913866576295 5.52516590323863
