40

In 0.9604390293799998 5.93127530981 -0.02270351782
Al 4.363566700619999 3.0870798601900002 4.79199955782
Al 1.7205789103 1.43487821879 4.80957197614
In 3.6034268197 7.58347695121 -0.04027593614
Ga 3.6545258299700003 1.4290699227199999 7.568324111800001
In 1.6956786835499997 7.606046770519999 2.7365804469199997
In 4.3297625237699995 5.92160289742 2.7292636812
In 1.02044198975 3.1135137958200003 7.575640877520001
Ga 1.69875325891 7.69020559285 6.6904396217399995
In 3.643235608209999 1.33965487359 1.87855982658
Al 1.0095368036699999 3.1683861202899997 1.8854331046200001
Al 4.33245206345 5.86147434615 6.6835663437
Ga 0.9328748991 0.29732422416 9.62925112716
Al 4.43668202594 8.75017380332 4.76467435828
In 1.78753366474 4.78937418432 4.78934257948
Al 3.5820232603 4.25812384316 9.604582905960001
O 4.431590320049999 6.04731550284 8.57279571244
O 0.9282903992300001 2.99399185752 3.77661930964
O 3.56295179297 1.52597904482 3.7686373124
O 1.79692892631 7.51532831554 8.58077770968
O 2.7994135764899997 0.09207092744 6.0526785818
O 2.5363679133499994 8.93381816764 1.20474811644
O 5.16332859349 4.58005788294 1.2056358728
O 0.17245289635 4.44583121214 6.05179082544
O 5.178574358509999 7.5348191803099995 6.1054285407
O 0.15802869597 1.4915955374499998 1.3255886685800002
O 2.8006795800699997 3.0175457269500003 1.3084043019800002
O 2.53592347441 6.008868990809999 6.122612907300001
O 0.10458106819 7.461173880759999 1.14361705212
O 5.230470141969999 1.5642479941599998 5.9595069696400005
O 2.5956162303899997 2.96011712006 5.9677107107200005
O 2.73943497977 6.0653047548600005 1.13541331104
O 1.9486576251399998 1.5532131577500001 8.33791530006
O 3.40875840022 7.486517334569999 3.4907281889
O 0.76634816342 6.050746753570001 3.5076353757
O 4.591067861939999 2.98898373875 8.32100811326
O 4.45277441609 0.02342261969 8.658644131700001
O 0.90774529791 9.018293558309999 3.8257857323000004
O 3.53432094237 4.52024590001 3.82711697634
O 1.82619877163 4.521470277990001 8.65731288766
