40

Al 0.0427979811355398 3.394147939185302 13.826377849515447
Al 1.4837802368193882 2.555611238275727 2.4018410180826595
Al 2.9615885418193884 -0.0019617067242727 2.3956290380826593
Al -1.4701722281806118 2.554692643275727 2.4103449980826595
Al 2.953397779545072 1.706273406288971 -0.0071973200981064
Al 2.970578952045072 1.699792727538971 5.402101862401894
Al 0.0133631343193882 -0.0050405279742727 4.20723274558266
Al -1.455454760454928 4.25428685128897 7.2199175499018935
In 0.0223535445450719 1.696713906288971 7.213705569901894
Al 1.498497704545072 4.25520544628897 7.211413569901894
Al 0.0313438661355398 3.3984683916853022 10.220178394515447
Al 2.982033067045072 1.695472275038971 9.008301317401894
In 4.46883169363554 0.8396538154353017 12.008562162015448
Al 2.9910233886355395 3.397226760435302 12.014774142015447
In 1.51487922863554 0.8387352204353017 12.017066142015446
In 0.0305443068193882 -0.0115212067242727 9.61653192808266
O 4.375455625045072 0.886675060438971 1.2142013874018938
O 2.956759652245072 3.3419450876389716 1.2201648882018936
O 1.539661258645072 0.8857932092389711 1.2223652082018936
O 0.0417693395193882 -0.0157552501742727 13.15060739398266
O 0.0029376609355398 3.409183113885302 1.2768037461154471
O 1.577156394045072 2.508589942138971 13.196201792401894
O 2.995852366845072 0.053319914938971 13.190238291601894
O 4.412950760445072 2.509471793338971 13.188037971601894
O 1.4362205391355398 2.585350724585301 6.0322779195154475
O 0.0175245663355402 5.040620751785301 6.0382414203154475
O -1.39957382726446 2.584468873385301 6.040441740315448
O 2.964622812245072 1.7020393628389712 3.5268781458018936
O 0.0193192741193882 -0.0072871632742727 6.08245646218266
O -1.40789515186446 4.224547416285302 3.5894805045154468
O 0.0108008209355402 1.769277389085302 3.583517003715447
O 1.42789921453554 4.225429267485302 3.581316683715447
O -1.5030144576806117 4.284026337425727 10.85035459558266
O 0.0339061795193882 1.6241504746257274 10.843894136382659
O 1.5690961059193886 4.284981676225727 10.84151045638266
O 0.0253877263355398 3.400715026985302 8.344954677915446
O 2.987989206845072 1.6932256397389711 10.883525034001893
O 4.516391391319388 0.8099143291257274 8.37812526058266
O 2.9794707541193874 3.469790191925728 8.38458571978266
O 1.4442808277193881 0.8089589903257274 8.38696939978266
