80

In 1.8123546376499997 8.193959925179998 7.0637304283999995
In 7.45441986265 8.188811800179998 7.028592758399999
In 3.8956778606899993 1.4353857937799999 1.9799806699400002
In 9.53774308569 1.4302376687799998 1.94484299994
Ga 1.07634210475 3.3745365226799997 1.98747480948
In 6.71840732975 3.36938839768 1.9523371394800002
Ga 4.63169039359 6.25480919628 7.05623628886
In 10.273755618589998 6.249661071279999 7.02109861886
In 1.015457059515 6.307333171224999 -0.03910721527
In 6.657522284514999 6.3021850462249995 -0.07424488527
In 4.667204750485 3.301087073775 5.0596448702700005
In 10.309269975484998 3.2959389487750004 5.02450720027
In 1.844626486465 1.5396507074749999 5.08639065559
In 7.486691711464999 1.5345025824749998 5.051252985590001
In 3.902427933535 8.121879877524998 10.14524710941
In 9.544493158535 8.116731752524998 10.11010943941
In 1.01244718359 0.33980274066 10.19348963943
In 6.65451240859 0.33465461566 10.15835196943
In 4.734478451189998 9.32162162366 5.01772592535
In 10.37654367619 9.31647349866 4.9825882553500005
In 1.9097497154899998 5.105909878159999 5.05723964155
In 7.55181494049 5.10076175316 5.02210197155
In 3.83717591929 4.55551448616 10.15397592323
In 9.479241144289999 4.55036636116 10.11883825323
In 3.916810507155 1.543432444355 8.004236150010001
In 9.558875732155 1.538284319355 7.96909848001
In 1.802812660985 8.095473135805001 2.8774729681299998
In 7.444877885984999 8.090325010805 2.8423352981299996
In 4.622282821404999 6.309714618105 2.8691808329099997
In 10.264348046404999 6.304566493105 2.83404316291
In 1.097340346735 3.329190962055 8.012528285230001
In 6.739405571734999 3.324042837055 7.977390615230001
O 4.740394459575 6.456871568794999 9.05601707543
O 10.382459684575 6.451723443794999 9.02087940543
O 0.9928799418850001 3.193293403445 3.9904452660300005
O 6.634945166885 3.188145278445 3.9553075960300004
O 3.812551709025 1.637623202545 3.98095613729
O 9.454616934025 1.632475077545 3.94581846729
O 1.9207226924349998 8.012541769695 9.065506204170001
O 7.562787917435 8.007393644695 9.03036853417
O 3.002662797335 0.116986757035 6.40388581987
O 8.644728022335 0.111838632035 6.36874814987
O 2.6966123060449996 9.505135955684999 1.25111566351
O 8.338677531044999 9.499987830684999 1.2159779935100001
O 5.513595983585 4.881621530785 1.25758644837
O 11.155661208585 4.876473405784999 1.22244877837
O 0.185679119795 4.740501181935 6.39741503501
O 5.827744344794999 4.735353056935 6.362277365010001
O 0.099369515745 7.934809045664999 1.19376964655
O 5.7414347407449995 7.9296609206649995 1.15863197655
O 5.598875305874999 1.6864639016149998 6.29785423507
O 11.240940530875001 1.6813157766149998 6.26271656507
O 2.779136336495 3.1654379969149997 6.30774236165
O 8.421201561495 3.160289871915 6.27260469165
O 2.9191084851249998 6.455834950364999 1.18388151997
O 8.561173710124999 6.450686825365 1.14874384997
O 5.532184117679999 8.03403644142 6.4388826553900005
O 11.17424934268 8.02888831642 6.40374498539
O 0.16825005268 1.58904225742 1.3999186299700002
O 5.81031527768 1.58389413242 1.3647809599700003
O 2.9907107127800003 3.21626043892 1.3738710908700003
O 8.632775937779998 3.2111123139199997 1.3387334208700001
O 2.7097234575799996 6.40681825992 6.46493019449
O 8.35178868258 6.401670134919999 6.429792524490001
O 2.093977594085 1.6739273253150002 8.821649292290001
O 7.736042819084999 1.6687792003150002 8.78651162229
O 3.6358196064349997 7.973369688565 3.67341364323
O 9.277884831435001 7.968221563565 3.63827597323
O 0.813442949135 6.442021639065 3.69896243503
O 6.455508174135 6.436873514065 3.66382476503
O 4.916354251384999 3.205275374815 8.79610050049
O 10.558419476385 3.2001272498149995 8.76096283049
O 4.774728277379999 0.0530824867 9.160565132150001
O 10.416793502380001 0.0479343617 9.12542746215
O 0.95944762062 9.597826030299998 4.0288526108500005
O 6.601512845619999 9.592677905299999 3.9937149408500003
O 3.77629689368 4.8209193942 4.03612139139
O 9.41836211868 4.8157712692 4.00098372139
O 1.9578790043199998 4.8299891228 9.15329635161
O 7.59994422932 4.8248409978 9.11815868161
