80

Ga 1.6411026503400001 7.413153058679999 6.4842159048
In 6.71568343034 7.391196723679999 6.4638173698
In 3.5042328899399995 1.285262781 1.8218862799000002
Al 8.578813669939999 1.2633064459999999 1.8014877449000002
Ga 0.97450090362 3.0548311042199994 1.82894361314
Ga 6.04908168362 3.0328747692199993 1.80854507814
Al 4.17083463666 5.643584735459999 6.4771585715599995
Al 9.24541541666 5.62162840046 6.4567600365599995
Al 0.9329708983399999 5.724546659915 -0.013885955305
In 6.0075516783400005 5.7025903249150005 -0.034284490305
Ga 4.1976725316599985 2.967487475085 4.643512065305
Al 9.272253311659998 2.945531140085 4.623113530305
Al 1.6534972591 1.3765815403450001 4.6565732927250005
Ga 6.728078039099999 1.354625205345 4.6361747577250005
Al 3.5144357909000004 7.331649814654998 9.304210367275001
Ga 8.589016570899998 7.309693479654999 9.283811832275001
Ga 0.8909044366200001 0.2736691143 9.31793281467
Ga 5.96548521662 0.2517127793 9.29753427967
Al 4.27695403414 8.434529846259998 4.6241885302300005
Al 9.351534814139999 8.412573511259998 4.6037899952300005
Ga 1.7231997945400002 4.61491559536 4.641231614930001
Al 6.79778057454 4.592959260360001 4.620833079930001
Al 3.44465867622 4.0932833652 9.30088972997
Ga 8.519239456219998 4.071327030199999 9.28049119497
Al 3.5113093661200003 1.364532144685 7.3272059969650005
In 8.585890146119999 1.342575809685 7.3068074619650005
Al 1.6407383057599998 7.336799194594999 2.6585045467349997
Al 6.715319085759999 7.314842859594998 2.6381060117349997
Al 4.171068977519999 5.706525141135 2.651198347415
Ga 9.245649757519999 5.684568806135 2.630799812415
Al 0.9809786943599998 2.994806198145 7.334512196285001
Ga 6.055559474360001 2.972849863145 7.314113661285001
O 4.26515963224 5.820503970085 8.305407593665
O 9.33974041224 5.798547635085 8.285009058665
O 0.8947934390800001 2.884261179835 3.6585083506350005
O 5.96937421908 2.862304844835 3.6381098156350005
O 3.426022139 1.462928531015 3.650828852195
O 8.500602919 1.440972196015 3.630430317195
O 1.7339309323199998 7.241836618904999 8.313087092105
O 6.80851171232 7.219880283905 8.292688557105
O 2.6879468410400005 0.077014002245 5.858448880905001
O 7.762527621039999 0.055057667245 5.838050345905001
O 2.45231731092 8.619199015515 1.1786158769950001
O 7.52689809092 8.597242680515 1.1582173419950001
O 4.971572302039999 4.411980971495 1.1759137001550002
O 10.04615308204 4.390024636495 1.155515165155
O 0.16869184992 4.284232046264999 5.861151057745
O 5.24327262992 4.262275711265 5.840752522745
O 0.1115753094 7.201403086814999 1.115900820015
O 5.1861560894 7.179446751814999 1.095502285015
O 5.0280922086399995 1.4945507754249998 5.771865417085
O 10.10267298864 1.4725944404249998 5.751466882085
O 2.4965641659999998 2.846236289365 5.779669348565
O 7.5711449459999995 2.824279954365 5.759270813565
O 2.64310335204 5.849717572875 1.108096888535
O 7.71768413204 5.8277612378749994 1.087698353535
O 4.98752719212 7.25841197184 5.92046344233
O 10.06210797212 7.23645563684 5.90006490733
O 0.153408173 1.43809259588 1.28456215147
O 5.2279889530000005 1.4161362608799999 1.26416361647
O 2.6970595958 2.90711604458 1.2717186818700001
O 7.7716403758 2.88515970958 1.2513201468700001
O 2.4438757693199995 5.7893885231399995 5.93330691193
O 7.51845654932 5.76743218814 5.91290837693
O 1.8705775053 1.486102171785 8.070774365065
O 6.945158285299999 1.464145836785 8.050375830065
O 3.28736192654 7.217788328255 3.389259071535
O 8.36194270654 7.195831993254999 3.368860536535
O 0.74408468214 5.835823798154999 3.4019469998350003
O 5.81866546214 5.813867463155 3.3815484648350003
O 4.413854749699999 2.868066701885 8.058086436765
O 9.4884355297 2.8461103668850005 8.037687901765
O 4.275947607919999 0.0049278938 8.38097306561
O 9.35052838792 -0.0170284412 8.36057453061
O 0.8845275180800001 8.700064017199999 3.7135790843900005
O 5.959108298079999 8.6781076822 3.6931805493900005
O 3.40318382376 4.35355170342 3.7111257736300005
O 8.477764603759999 4.33159536842 3.6907272386300005
O 1.75729130224 4.3514402075800005 8.38342637637
O 6.83187208224 4.32948387258 8.36302784137
