80

Al 10.80380959393 3.981985e-06 1.207294129245
Ga 10.80380179893 3.131843956985 1.207304434245
Ga 23.04061091393 9.496985e-06 1.1916251842449999
Al 23.04060311893 3.131849471985 1.1916354892449998
Ga -0.1252658639300001 -3.496985e-06 4.735754975755
Al -0.12527365893 3.131836478015 4.735765280755
Al 12.11153545607 2.018015e-06 4.7200860307550006
Ga 12.11152766107 3.131841993015 4.7200963357550005
Al 4.68540503643 1.565921211985 1.2151337542449998
Ga 4.68539724143 4.697761186985 1.2151440592449998
In 16.92220635643 1.565926726985 1.199464809245
Al 16.92219856143 4.6977667019850005 1.199475114245
Al 5.99313089857 1.565919248015 4.7279256557550005
Ga 5.993123103569999 4.697759223015001 4.727935960755
Ga 18.22993221857 1.565924763015 4.712256710755
In 18.22992442357 4.6977647380150005 4.712267015755
Al 9.222181305880001 1.5659211750350002 4.074508152055
In 9.222173510880001 4.697761150034999 4.074518457055
In 21.458982625879997 1.5659266900350002 4.058839207055001
In 21.45897483088 4.697766665035 4.0588495120550006
In 1.4563546291199998 1.565919284965 1.8685512579449999
In 1.4563468341199999 4.697759259965 1.8685615629449999
In 13.693155949120001 1.5659247999650001 1.852882312945
Ga 13.693148154120001 4.697764774965 1.852892617945
In 3.1037845433799998 -1.569965e-06 4.082337472055
In 3.1037767483799996 3.1318384050350003 4.082347777055
In 15.340585863380001 3.945035e-06 4.0666685270550005
Al 15.340578068380003 3.131843920035 4.0666788320550005
Al 7.574759186620001 2.054965e-06 1.860711632945
Al 7.57475139162 3.131842029965 1.860721937945
Ga 19.81156050662 7.569965e-06 1.845042687945
Ga 19.811552711620003 3.131847544965 1.845052992945
O 9.43887612481 2.362795e-06 2.591001570335
O 9.43886832981 3.131842337795 2.591011875335
O 21.67567744481 7.877795e-06 2.5753326253349997
O 21.67566964981 3.1318478527950004 2.5753429303349997
O 1.2396676051899997 -1.877795e-06 3.3520475346649996
O 1.2396598101899996 3.131838097205 3.3520578396649996
O 13.47646892519 3.637205e-06 3.336378589665
O 13.47646113019 3.1318436122050004 3.3363888946649998
O 3.32047156731 1.565919592795 2.598841195335
O 3.3204637723099997 4.697759567795 2.598851500335
O 15.557272887309999 1.565925107795 2.583172250335
O 15.55726509231 4.697765082795001 2.583182555335
O 7.358064367690002 1.565920867205 3.3442182146649997
O 7.358056572690002 4.697760842205001 3.3442285196649997
O 19.59486568769 1.565926382205 3.3285492696649994
O 19.59485789269 4.697766357205 3.3285595746649994
O 8.8308798471 1.28325e-07 5.290175495425
O 8.8308720521 3.131840103325 5.290185800425
O 21.067681167099998 5.643325e-06 5.274506550425
O 21.0676733721 3.131845618325 5.274516855425
O 1.8476638829000003 3.56675e-07 0.652873609575
O 1.8476560879000001 3.131840331675 0.652883914575
O 14.084465202899999 5.871675e-06 0.637204664575
O 14.084457407899999 3.131845846675 0.637214969575
O 2.7124752896 1.5659173583250001 5.298015120425
O 2.7124674946 4.697757333325 5.298025425425
O 14.949276609599998 1.5659228733250001 5.282346175425
O 14.9492688146 4.6977628483250005 5.282356480425
O 7.966060645400002 1.565923101675 0.645044289575
O 7.966052850400001 4.697763076675001 0.645054594575
O 20.202861965399997 1.565928616675 0.629375344575
O 20.2028541704 4.6977685916750005 0.629385649575
O -1.10884208159 1.5659162722700002 4.42726998787
O -1.10884987659 4.69775624727 4.42728029287
O 11.12795923841 1.5659217872700002 4.41160104287
O 11.12795144341 4.69776176227 4.41161134787
O 11.78737801659 1.56592418773 1.51578942213
O 11.78737022159 4.6977641627299995 1.51579972713
O 24.02417933659 1.56592970273 1.50012047713
O 24.02417154159 4.69776967773 1.50013078213
O 5.00956247591 -9.5773e-07 4.41943036287
O 5.00955468091 3.13183901727 4.41944066787
O 17.246363795909996 4.55727e-06 4.40376141787
O 17.246356000909998 3.13184453227 4.40377172287
O 5.668981254089999 1.44273e-06 1.52361874213
O 5.668973459089999 3.13184141773 1.52362904713
O 17.90578257409 6.95773e-06 1.50794979713
O 17.905774779090002 3.1318469327300003 1.50796010213
