40

Al 8.424204733342588 -0.0292046257498244 13.850777482292457
Al 6.792075605407413 0.0166077832498244 2.3459392464575406
In 5.105038295 0.02078323 -0.06027119
Al 9.338619665407412 1.5192183682498244 2.3226356814575406
Al 4.233581370407412 1.4984351382498244 2.382906871457541
In 5.07209344625 -0.0041989475 5.39890557625
Al 1.676055694157412 -0.0125028392501756 4.225936025207541
Al 8.479112814592588 0.0124323367501756 4.752149538542459
Al 2.502617595 1.469301015 7.25559879
Ga 7.60765589 1.490084245 7.1953276
Al 8.446167965842587 -0.0125498407498244 10.211326304792458
In 5.05013021375 -0.0208537325 9.03835675375
In 3.3301480545925872 -0.0416604632498244 12.091323083542457
Al 1.6431108454074121 -0.0374850167501756 9.685112791457541
In 5.876692114592588 1.4609501217501755 12.068019518542458
Al 10.981730409592588 1.4817333517501756 12.007748328542458
O 3.4639585415500003 0.0084699695 1.1964289911500001
O 1.621586877557412 -0.0538067060501756 13.25177494540754
O 5.908640839150001 1.4509761311 1.1740575687500001
O 11.01320112715 1.5911368787000002 1.11433294115
O 8.500636782442587 0.0287540260501756 1.185487384592459
O 6.65826511845 -0.0335226495 13.240833338849999
O 9.30667094085 1.5291923589 13.21659763125
O 4.20211065285 1.3890316112999999 13.27632225885
O 6.838033061142587 0.0001190762501756 6.008849719692458
O 5.08351432715 0.0044615407 3.50639096395
O 9.282715358742589 1.4426252378501756 5.986478297292459
O 4.177199056742587 1.5412195254501757 6.047296049692458
O 1.664634813257412 -0.0211633274501756 6.118450637507541
O 10.120192568042588 0.0247455972501756 3.4954493573924585
O 12.768598390442587 1.5874606056501757 3.4712136497924586
O 7.664038102442588 1.4472998580501755 3.5309382773924587
O 0.0020310919574122 -0.0497982772501756 10.94181297260754
O 8.457588846742587 -0.0038893525498244 8.318811692492458
O 2.446713389557412 1.3927078843498242 10.91944155020754
O 7.551273677557413 1.5328686319498244 10.85971692260754
O 5.03870933285 -0.0295142207 10.930871366049999
O 3.2841905988574123 -0.0251717562501756 8.428412610307541
O 5.932596421257412 1.5375432521498245 8.404176902707542
O 11.038112723257413 1.4389489645498241 8.343359150307542
