40

Al 8.229930905384967 0.015237847012657 13.494940560186802
Al 6.6183175596150345 0.023860211737343 2.296075458563198
Al 4.97089914 0.020326395 -0.048751165
Al 9.097816414615036 1.4847800817373429 2.273670968563198
Al 4.126917274615034 1.4644536867373428 2.322422133563198
Al 4.949416155000001 0.01303268625 5.26367200625
Ga 1.6402574246150343 0.001102580487343 4.115634347313199
Al 8.265735880384966 0.027394028262657 4.640901941436802
In 2.450854875 1.4511949249999998 7.060826405
Al 7.421754015 1.47152132 7.01207524
Al 8.244252895384966 0.020100319512657 9.953325112686802
Al 4.935094165000001 0.00817021375 8.80528745375
Al 3.2661927603849654 -0.002657311737343 11.7728840014368
Al 1.6187744396150343 -0.006191128262657 9.428057518563199
Al 5.745691615384966 1.458262558262657 11.7504795114368
In 10.716590755384967 1.478588953262657 11.701728346436802
O 3.3753419386 0.01216870795 1.17099845995
O 1.6047388894150343 -0.010956351312657 12.898840657113197
O 5.755660839400001 1.4146517831499998 1.14949014955
O 10.7260839222 1.5510387119499998 1.10089667195
O 8.279771430584965 0.032159251312657 1.1701188028868017
O 6.5091683814 0.00903419205 12.89796100005
O 9.087847190600002 1.52839085685 12.87466033045
O 4.1174241078 1.39200392805 12.923253808050001
O 6.670178678984965 0.019236341212657 5.860651566386801
O 4.9568635898 0.01556117195 3.4220319735499998
O 9.050497579784965 1.421719416412657 5.8391432559868015
O 4.079122382584965 1.517453555212657 5.888052108386802
O 1.6328099898150343 -0.001425905212657 5.957274380013199
O 9.861293081784966 0.035551715312657 3.4211523164868014
O 12.439971890984966 1.5549083801126569 3.3978516468868016
O 7.469548808184966 1.418521451312657 3.4464451244868015
O 0.0232172382150344 -0.014348815312657 10.647807143513198
O 8.251700330184965 0.022628805212657 8.1116850799868
O 2.4035361390150345 1.388134259887343 10.626298833113198
O 7.373959221815035 1.5245211886873429 10.577705355513197
O 4.9276467302 0.00564172805 10.64692748645
O 3.2143316410150344 0.001966558787343 8.208307893613199
O 5.793010450215035 1.5213232235873428 8.185007224013198
O 10.764385647415034 1.425589084787343 8.1360983716132
