30

Al -0.0009770566428 0.00143633846412 1.9668180113620801
Al -0.0042814066428 0.00629395346412 8.61848467136208
Al -0.0056316433572 0.00827889153588 11.336515308637921
Al -0.0023272933572 0.00342127653588 4.68484864863792
In 2.4409787512369436 1.4252737343690447 6.40101314369898
Ga 2.4376744012369436 1.4301313493690446 13.052679803698979
Al 2.4429328645225437 1.4224010574408046 2.46737712097482
Al 2.4396285145225436 1.4272586724408045 9.11904378097482
Al -0.013662344522544 2.834781302559196 10.833989929025181
Al -0.010357994522544 2.8299236875591958 4.18232326902518
Al -0.011708231236944 2.831908625630956 6.900353906301021
Al -0.008403881236944 2.8270510106309557 0.2486872463010203
O 3.3948232501612003 0.0123685785268 3.3266785164672
O 0.7446037828391999 1.3036828374468001 3.3252309435228002
O -1.7085043380004001 2.9387021365264 3.32362426001
O 1.6846667371608 2.9534995225532 9.9761361064772
O -0.7588219719996001 1.3041503534736 9.97652430999
O 1.4951648798388 0.0116765214732 9.9778732835328
O 0.9401822280409436 1.4218761044317247 7.759655168804099
O 3.1865595907189435 2.7275202333517248 7.759426075859699
O 3.1941690798793436 0.1294022724313246 7.761004142346899
O 1.6973520250405436 0.1201545584581246 1.1089641888140997
O 1.6897425358801437 2.718272519378525 1.1073861223268997
O 3.9437293877185433 1.4257986873781248 1.1087350958696998
O -1.514458867718544 2.8313836726218757 12.1926319541303
O 0.731918494959456 4.137027801541875 12.1924028611859
O 0.739527984119856 1.5389098406214754 12.1939809276731
O -0.7572890707189439 1.5296621266482755 5.5419409741403
O -0.7648985598793441 4.127780087568675 5.5403629076531
O 1.489088291959056 2.8353062555682755 5.5417118811959005
