40

In 4.021164858972999 0.0134694093540878 3.417700455633277
In 8.637285021027001 0.0146437606459122 12.739791094366721
In 0.19831851875 -0.0040983525 1.96813016875
In 1.38822963125 -0.0286884675 13.77691118125
In 7.645692427277001 0.0351355231459122 2.8991402506167225
In 5.012757452722999 -0.0070223531459122 13.258351299383277
In 12.514054432723 1.6749838618540878 5.699944604383276
In 11.197586692277 1.653904923145912 10.879549805616723
In 5.661635827277 1.623454928145912 10.673324705616722
In 6.978103567722999 1.6445338668540876 5.493719504383276
In 8.2406481101115 0.0228404659270439 8.803530918441638
In 4.4178017698885 0.0052727040729561 7.353960631558361
Ga 0.793274075 -0.01639341 7.872520675
In 5.535950865 0.030449995 0.2062251
In 2.75862019 1.63516281 0.10788888
In 8.294571055 1.6656128049999999 0.31411398
O 6.0090448698114995 0.0226046453270439 4.171476894941638
O 6.649405010188501 0.0055085246729561 11.98601465505836
O 3.8149135836075176 0.017731696281956 1.3708449226828636
O 8.843536296392482 0.010381473718044 14.786646627317136
O 8.657320141492482 1.592360942318044 4.275050215617136
O 3.983167672907517 1.546032827681956 11.891611887982863
O 9.518370118507518 1.706077847681956 12.098219094382863
O 14.192522587092482 1.7524059623180441 4.481657422017136
O 0.40456977825 -0.0083606391 4.01498554425
O 1.18197837175 -0.0244261809 11.73005580575
O 9.282340237911502 0.0476664015270439 1.6268039294416383
O 3.3761096420885006 -0.0195532315270439 14.53068762055836
O 12.151305235511503 1.7482357239270438 1.7390083646416383
O 11.559587580807518 1.710248086681956 14.840868155882863
O 6.024385024488501 1.550203066072956 14.63426094535836
O 6.616102679192482 1.5881907033180438 1.5324011541171365
O 10.228528120950001 0.0319757019 9.557307357749998
O 2.42992175905 -0.0038625319 6.6001841922499995
O 8.034396724027001 0.0271027522459122 6.756675381366723
O 4.624053155972999 0.0010104177540878 9.400816168633277
O 12.87680350335 1.6017319995 9.66088068255
O 10.83558604105 1.5975617605 6.9182316210499994
O 5.29888675665 1.6967067905000002 6.712388627449999
O 7.34010421895 1.7008770295 9.455037688949998
