40

Ga 2.9744704887551596 1.7246571930575159 0.599834837819309
Al -0.0595276989596138 0.0648511064410976 13.686719355727353
Ga -1.5026258187448407 4.308324008057516 2.353059837819309
In -0.0116005787448407 1.7305998930575157 2.372012667819309
Al 1.4756807662551596 4.310840148057516 2.3661062778193087
In 2.9589415237551595 1.7415748730575158 4.17028337781931
Al 4.435777935204454 0.8972703155013865 7.156323536453338
Al 2.9447526952044547 3.4749944305013862 7.137370706453338
Al 1.4574713502044545 0.8947541755013865 7.143277096453338
Ga -0.0207052864596138 0.0225569064410976 4.760598005727353
Ga -0.0439987339596138 0.0479334264410976 10.116270815727352
Al -0.0413183722955456 3.4809371305013865 8.909548536453338
In 1.4355181285403862 2.6366325214410975 11.895588695727353
Ga 2.926543368540386 0.0589084064410976 11.914541525727353
Al -1.5427884564596137 2.6341163814410975 11.882542255727353
Ga 2.9356480762551596 1.7669513930575158 9.52595618781931
O 1.4224103761044546 2.620328389701386 1.2076194564533382
O -0.0089738542955453 5.0949435401013865 1.1894247396533384
O -1.4367639454955454 2.6179128953013864 1.1950948740533383
O 2.9204296905551597 1.7835307194575158 13.02499575701931
O -0.0054869007596138 0.0059775800410976 1.2615584365273529
O -1.4895181556955457 4.324628191301387 13.04102907645334
O -0.0581339252955455 1.8500130409013866 13.05922379325334
O 1.3696561659044544 4.327043685701387 13.053553658853339
O -1.5778494305596136 4.359690595641097 5.946884615727353
O -0.0271831809596138 1.6788575160410977 5.966595558927353
O 1.5195894178403864 4.362307381241097 5.960452913327353
O -0.0177143454955456 3.4552222569013864 3.482466755653338
O 2.9508664619551594 1.7503720666575158 6.0269166186193095
O 4.511001547640386 0.8459037272410976 3.562498615727353
O 2.9603352980403854 3.526736806841098 3.5427876725273526
O 1.4135626992403862 0.8432869416410976 3.548930318127353
O 4.360554412155159 0.948636852257516 10.750148457819309
O 2.92917018175516 3.4232520026575166 10.731953741019309
O 1.5013800905551589 0.946221357857516 10.73762387541931
O -0.0359236721596138 0.0391362328410976 8.259637574927353
O -0.0493934340955456 3.4897343241013865 10.766181777253339
O 1.510741740355159 2.5852659338575164 8.30176391781931
O 2.942125970755159 0.1106507834575159 8.31995863461931
O 4.36991606195516 2.587681428257516 8.31428850021931
