80

Ga 1.66356384391 7.465354960610001 6.52085480555
Al 6.77191482391 7.438207600610001 6.49705320555
In 3.53002556539 1.29132472025 1.8304152498900002
Ga 8.638376545389999 1.2641773602500002 1.8066136498900003
Ga 0.9851998473899999 3.07580088825 1.8387005589500003
Ga 6.09355082739 3.04865352825 1.8148989589500002
Ga 4.20838956191 5.680878792610001 6.51256949649
In 9.31674054191 5.653731432610001 6.48876789649
Ga 0.94485101342 5.763723974560001 -0.01603767966
Ga 6.05320199342 5.7365766145600015 -0.03983927966
Al 4.231571441579999 2.9854710104400004 4.66839248966
Al 9.339922421579999 2.9583236504400006 4.644590889660001
Ga 1.6688793275799998 1.38594539444 4.683586608140001
In 6.77723030758 1.3587980344400001 4.65978500814
Ga 3.55111407742 7.3822462805599995 9.35687796186
Ga 8.65946505742 7.35509892056 9.33307636186
Ga 0.90311892369 0.27742225683 9.37418602734
Ga 6.01146990369 0.25027489683 9.35038442734
Ga 4.316787339409999 8.49073142479 4.64750232314
Ga 9.42513831941 8.463584064790002 4.623700723140001
Al 1.74224600941 4.646893744790001 4.66727844994
Ga 6.85059698941 4.619746384790001 4.643476849940001
Al 3.4776602536900003 4.1212599368300005 9.35440990054
Ga 8.58601123369 4.09411257683 9.330608300540002
Al 3.5407776609500003 1.3727489614300001 7.369328225330001
Ga 8.64912864095 1.3456016014300003 7.345526625330001
Al 1.66065451935 7.38735012363 2.67180158691
Ga 6.7690054993499995 7.36020276363 2.64799998691
Al 4.20622081335 5.743143459630001 2.66322990233
Ga 9.31457179335 5.715996099630001 2.63942830233
Al 0.99521136695 3.0169556254300005 7.377899909910001
Ga 6.1035623469499996 2.9898082654300007 7.354098309910001
O 4.30469715477 5.859477518730001 8.35187641285
O 9.41304813477 5.832330158730001 8.328074812850002
O 0.9059720669300001 2.9046488646100004 3.6795326685100003
O 6.01432304693 2.8775015046100005 3.6557310685100006
O 3.4526492249300005 1.4708464566100001 3.6705314206500006
O 8.56100020493 1.44369909661 3.6467298206500005
O 1.7580199967699999 7.2932799267299995 8.36087766071
O 6.86637097677 7.26613256673 8.33707606071
O 2.70970696605 0.07659815001 5.892464112810001
O 7.81805794605 0.04945079001 5.86866251281
O 2.47795679405 8.677497981010001 1.1820230152700002
O 7.586307774050001 8.65035062101 1.15822141527
O 5.00982243205 4.43830549301 1.1787492778100002
O 10.11817341205 4.41115813301 1.15494767781
O 0.17784132805 4.31579063801 5.895737850270001
O 5.2861923080499995 4.28864327801 5.87193625027
O 0.12017587165 7.252071377090001 1.12080222227
O 5.228526851649999 7.22492401709 1.0970006222700002
O 5.06679075325 1.50172080689 5.8034751496500006
O 10.175141733250001 1.47457344689 5.77967354965
O 2.5197433072499997 2.8653884628900004 5.81261958527
O 7.628094287250001 2.83824110289 5.788817985270001
O 2.66722331765 5.888403721090001 1.1116577866500001
O 7.775574297649999 5.8612563610900015 1.08785618665
O 5.031764228659999 7.3060473943 5.951533649230001
O 10.14011520866 7.2789000343 5.92773204923
O 0.15668380854 1.4483906771400001 1.2919394545300003
O 5.2650347885399995 1.4212433171400003 1.2681378545300002
O 2.71872791854 2.9251804771400005 1.2769959146300003
O 7.82707889854 2.8980331171400002 1.2531943146300002
O 2.46972011866 5.8292575943000005 5.966477189130001
O 7.578071098659999 5.802110234300001 5.94267558913
O 1.88971576648 1.4970144165800003 8.11846793466
O 6.99806674648 1.4698670565800003 8.094666334660001
O 3.31860062392 7.2660861455 3.4059832196600004
O 8.42695160392 7.2389387855 3.3821816196600003
O 0.7570193739200001 5.8769647855 3.42074777486
O 5.8653703539199995 5.8498174255 3.39694617486
O 4.451297016480001 2.88613577658 8.10370337946
O 9.559647996479999 2.8589884165800004 8.07990177946
O 4.30984156028 0.00316867204 8.429382747930001
O 9.41819254028 -0.02397868796 8.40558114793
O 0.9014376547200001 8.761223664960001 3.7334598700700004
O 6.0097886347200005 8.734076304960002 3.7096582700700007
O 3.43256271672 4.381761672960001 3.7304725081300005
O 8.540913696719999 4.35461431296 3.7066709081300004
O 1.7787164982800001 4.38263066404 8.432370109870002
O 6.8870674782800005 4.35548330404 8.408568509870001
