80

Ga 7.641331442499999 2.541642185 7.652232525
In 2.5463709325000004 7.64069859 7.65126758
In 7.646976567499999 7.6412652350000005 2.5575747349999998
In 7.6434338324999995 7.63868829 7.65474636
In 2.5499136675000003 7.643275535000001 2.5540959549999998
In 7.644874177499999 2.54421913 2.5550609
In 2.5442685425000002 2.543652485 7.648753745
Al 2.5478112775 2.54622943 2.55158212
In 7.64401104248 4.74485457486 5.10473268922
In 2.55259326748 9.846487924860002 0.00659611922
In 7.64783970252 5.44062979014 0.00790294578
In 5.09691465598 7.64115714476 4.757813487
In -0.00579336902 2.54354439476 9.848992497
In -0.00063005598 7.642816980240001 5.447550048
In 4.747250910300001 5.091307087900001 7.65151349546
In 9.8457541553 -0.0051723721 2.55530681546
In 5.4383490747000005 -0.0060124179 7.6494727745399995
In 2.5472340675200003 5.44006314514 5.101595790779999
In 7.64573731252 0.3435836851400001 0.00538911078
In 2.55049087748 4.74944181986 0.00408228422
In 5.09433045402 2.5437605752400003 5.448514993
In 0.00291267902 7.6453939252400005 0.350378423
In -0.00225063402 2.5461213397600004 4.751820872
In 5.4439941997000005 5.093610632100001 2.5548149845399997
In 0.3412861747000001 -0.0040021179 7.6459939945399995
In 4.748691255300001 -0.0031620721 2.55182803546
In 2.54513167752 0.3430170401400001 5.09908195578
In 5.0978731890199995 2.5463375202400003 0.351343368
In 0.3469312997 5.095620932100001 2.5513362045399997
In 7.64611343248 9.841900679860002 5.10724652422
In 5.09337192098 7.638580199760001 9.854985112
Ga 9.8443138103 5.0892967879 7.65499227546
O 6.3173539966600005 3.9800163302700002 6.69376867817
O 3.8715341263000003 9.077058447950002 8.61114922977
O 8.9722860817 6.203860021050001 1.59950205083
O 6.3169385703400005 6.201359500730001 8.611401241229999
O 6.6871830696300005 6.31568448561 3.9936695255099997
O 8.599126837830001 3.8657695374100003 9.090942530989999
O 1.58966877997 8.967035212190002 6.21386476821
O 8.60213408757 6.31380506479 6.21734437529
O 3.98426853208 6.68255702336 6.32651137248
O 9.08382244352 8.598272992439998 3.8842929744399997
O 6.20264334428 1.58329441616 8.97604353056
O 6.207378455120001 8.59816986804 6.3289733225199996
O 3.8738911133400005 6.20490138973 3.5125598018299993
O 6.3197109837 1.10785927205 1.59517925023
O 1.2189590282999998 3.9810576989500004 8.606826429169999
O 3.8743065396600005 3.9835582192700003 1.59492723877
O 3.5040620403699996 3.86923323439 6.212658954489999
O 1.59211827217 6.31914818259 1.11538594901
O 8.601576330030001 1.21788250781 3.9924637117899997
O 1.58911102243 3.87111265521 3.98898410471
O 6.20697657792 3.50236069664 3.8798171075199996
O 1.10742266648 1.5866447275600002 6.32203550556
O 3.9886017657200004 8.601623303839999 1.2302849494399999
O 3.9838666548800004 1.5867478519600002 3.87735515748
O 1.22593622166 9.081649680270003 1.5956321081699998
O 8.9700373713 3.9805789879500004 3.5149425497699993
O 3.8695780567000004 1.10624727105 6.69068106083
O 1.22131601534 1.10890064073 3.5082370012299995
O 1.58447504463 1.21807173561 9.08484853551
O 3.5077090628299996 8.967402887410001 3.9928059609899997
O 6.688172024970001 3.8705557521900005 1.11765808821
O 3.5065115325699994 1.2213462047900001 1.1141801352899998
O 9.082771777080001 1.5860775633600002 1.2303046924799999
O 3.9811144185200003 3.50066024244 8.975471984439999
O 1.1112255692800002 6.684927766160001 3.87790696056
O 1.1117559001200001 3.50571100804 1.2258090825199999
O 8.965308888340001 1.10326803973 8.610696371829999
O 1.2212077387 6.204338732050001 6.69138593023
O 6.321667053300001 9.078670448950001 3.5156474191699996
O 8.969929094660001 9.07601707927 6.698091478769999
O 8.60677006537 8.96684598439 1.1214799444899999
O 6.6835360471700005 1.2175148325899998 6.21352251901
O 3.5030730850299996 6.31436196781 9.08867039179
O 6.68473357743 8.96357151521 9.092148344709999
O 1.1084733329200003 8.59884015664 8.976023787519999
O 6.210130691480001 6.684257477560001 1.2308564955599999
O 9.080019540720002 3.49998995384 6.328421519439999
O 9.07948920988 6.679206711960001 8.98051939748
