80

In 1.6741672747099998 7.57506527071 6.6048549327099995
In 6.86735122471 7.5579976557099995 6.581937272709999
In 3.58548895933 1.3172763531099998 1.8551230414900002
In 8.77867290933 1.3002087381099998 1.8322053814900001
In 0.99475473991 3.1212167999699996 1.8620045575500002
Ga 6.187938689909999 3.10414918497 1.83908689755
In 4.26490149413 5.77112482385 6.5979734166499995
In 9.45808544413 5.75405720885 6.575055756649999
Ga 0.9486611308699999 5.845348702355 -0.0190125214
Al 6.14184508087 5.828281087355 -0.0419301814
Ga 4.29447993913 3.0376243776450003 4.7304570414
Ga 9.48766388913 3.020556762645 4.7075393814
Ga 1.69255218677 1.410738276025 4.74608530588
Al 6.88573613677 1.393670661025 4.72316764588
Al 3.59250554323 7.496012833975 9.47940351412
Al 8.78568949323 7.478945218974999 9.45648585412
Al 0.91519961064 0.28753144305 9.50000028972
Ga 6.108383560639999 0.27046382805 9.47708262972
Al 4.369774286039999 8.619172110889998 4.70646044168
Al 9.56295823604 8.602104495889998 4.68354278168
Al 1.7604228434399998 4.7169191791900005 4.72788965848
Al 6.9536067934400005 4.699851564190001 4.7049719984800005
In 3.52455105324 4.189784374749999 9.47857107292
Al 8.71773500324 4.172716759749999 9.45565341292
Ga 3.5948722271999998 1.402461807095 7.46829665171
In 8.788056177200001 1.385394192095 7.44537899171
Al 1.6723290056400002 7.494159862125 2.7042092964899997
Al 6.86551295564 7.477092247125 2.6812916364899997
Ga 4.2635272057 5.832429842145 2.6969652209099997
Al 9.4567111557 5.815362227145001 2.6740475609099996
Al 1.00367402714 3.0641918270749997 7.47554072729
In 6.19685797714 3.047124212075 7.45262306729
O 4.361981262439999 5.953258201875 8.461883299830001
O 9.555165212439999 5.936190586875 8.43896563983
O 0.91410630232 2.9484044097049997 3.72760003997
O 6.107290252320001 2.931336794705 3.7046823799700004
O 3.50600047334 1.4999900300450002 3.7198121251100003
O 8.69918442334 1.4829224150450002 3.69689446511
O 1.77008709142 7.401672581535 8.46967121469
O 6.963271041419999 7.384604966535 8.44675355469
O 2.7530481420000004 0.085989248115 5.97209815347
O 7.946232092 0.068921633115 5.94918049347
O 2.50090742628 8.803118563625 1.19396979593
O 7.69409137628 8.786050948625 1.1710521359300001
O 5.0835219845 4.5104956463649994 1.19343307147
O 10.276705934499999 4.493428031365 1.17051541147
O 0.17043358378 4.378612165375 5.97263487793
O 5.363617533779999 4.361544550375 5.94971721793
O 0.10695167444 7.353122566764999 1.13211580021
O 5.30013562444 7.336054951764999 1.10919814021
O 5.14633322728 1.5356047964949997 5.88172744039
O 10.33951717728 1.5185371814949997 5.85880978039
O 2.55420706594 2.9129139627150002 5.88969663501
O 7.74739101594 2.895846347715 5.86677897501
O 2.69907783578 5.975813400545 1.12414660559
O 7.89226178578 5.958745785545 1.10122894559
O 5.0987316181299995 7.42018731416 6.02876322293
O 10.29191556813 7.4031196991599995 6.00584556293
O 0.15597845003 1.46934850212 1.30855752387
O 5.34916240003 1.45228088712 1.2856398638700002
O 2.75750021933 2.97180048022 1.29324649897
O 7.95068416933 2.95473286522 1.27032883897
O 2.49720984883 5.917735336060001 6.04407424783
O 7.69039379883 5.9006677210600005 6.02115658783
O 1.91596902781 1.5254161505650001 8.22703689364
O 7.109152977809999 1.5083485355650001 8.20411923364
O 3.3578550373100002 7.374962447395 3.4486880539599998
O 8.55103898731 7.357894832395 3.42577039396
O 0.7566232559100001 5.961391986095 3.4637724791599998
O 5.94980720591 5.944324371095 3.44085481916
O 4.517200809209999 2.9389866118650003 8.21195246844
O 9.710384759210001 2.921918996865 8.18903480844
O 4.379255774990001 0.01601985254 8.54345804627
O 9.57243972499 -0.00104776246 8.52054038627
O 0.8974186230100001 8.885975651459999 3.7792219137300003
O 6.09060257301 8.868908036459999 3.75630425373
O 3.47956920059 4.45114230732 3.77904774879
O 8.67275315059 4.434074692319999 3.7561300887900004
O 1.7971051974099999 4.45085319668 8.543632211210001
O 6.99028914741 4.4337855816800005 8.52071455121
