40

Ga 0.09739022125 -0.0598404625 12.002119535
Al 0.01391288875 -0.0085486375 1.714588505
Ga 0.0890439658942866 3.269221656246057 10.87466970053367
Al 2.902153114105713 1.646768973753943 2.8420845494663305
Al 2.87850042 -0.000664785 -0.02336768
Al -1.438553435 2.49285465 0.023390785
Al 1.439946985 2.492189865 2.3105e-05
Al -1.4009878521442871 4.131739771253942 4.60343151946633
Ga 0.0375655828557131 1.638885121253943 4.58004073446633
Al 1.4775125678557128 4.131074986253942 4.58006383946633
Al 1.5136845121442868 0.7849156437460568 9.136690410533669
Ga 4.3921849321442865 0.7842508587460568 9.11332273053367
Al 2.9536314971442867 3.277105508746057 9.13671351553367
Al 0.0612181895073177 3.286318930562166 7.44549282770075
Al 2.929978890492682 1.629671699437834 6.27126142229925
Al 0.055651555 -0.03419455 6.85835402
O 4.3626355558057135 0.8002864935539432 12.56598454906633
O 2.9816242582057138 3.1934269575539433 12.588439702666331
O 1.599275152605713 0.8009246871539432 12.588417521866331
O 1.3919219273942869 4.115065942846057 1.1283367281336696
O -1.3714384758057134 4.115704136446057 1.1507697009336695
O 0.0095728217942869 1.722563672446057 1.1283145473336695
O 0.08292081695 -0.0509498795 10.2189474898
O 0.02838229305 -0.0174392205 3.4977605502
O 0.1035133713073177 3.260331072562166 12.657841882900751
O 2.887683708692682 1.655659557437834 1.0589123670992502
O 1.5807995587926817 2.4077650796378345 10.26406946269925
O 2.961810856392682 0.0146246156378341 10.241614309099251
O 4.3441599619926805 2.4071268860378345 10.24163648989925
O -1.3529628819926818 2.508863743962166 3.47511776010075
O 1.4103975212073183 2.508225550362166 3.4526847873007496
O 0.0293862236073181 4.901366014362166 3.4751399409007497
O -1.4305373170499998 4.147775457299999 8.056093064599999
O 0.06555825535 1.5552066213 8.0317666482
O 1.5631031197500007 4.147084080899999 8.0317906774
O 1.42809396025 0.7689065491 5.6849635726
O 4.42173439705 0.7682151727 5.6606611853999995
O 2.92563882465 3.3607840087000005 5.6849876018
O 0.0467487840942866 3.295209514246057 5.66232064533367
O 2.944448295905713 1.6207811157539431 8.05443360466633
