80

In 1.74113616398 7.82157418973 6.78534688026
In 7.108595133980001 7.80241398973 6.75494310526
In 3.7086294311800003 1.3600144946899997 1.9026440342200002
Ga 9.07608840118 1.3408542946899997 1.87224025922
Al 1.0314653017 3.2216771295299997 1.91106807836
In 6.3989242717 3.20251692953 1.8806643033600001
In 4.418300293460001 5.95991155489 6.77692283612
In 9.785759263460001 5.94075135489 6.74651906112
In 0.98216131371 6.0295916505600005 -0.027520597165
In 6.349620283710001 6.0104314505600005 -0.057924372165
Ga 4.4456544862900005 3.1378837844400005 4.8583888521650005
Ga 9.81311345629 3.1187235844400005 4.827985077165
In 1.7559446774500003 1.46041840716 4.879764616785
Al 7.123403647450001 1.4412582071599997 4.849360841785
In 3.7275812625500007 7.74287745784 9.740755058215
Ga 9.095040232550001 7.72371725784 9.710351283215001
Ga 0.9583625896200001 0.30762745857 9.77374732398
In 6.3258215596200005 0.28846725857 9.74334354898
In 4.525051930100001 8.89559676557 4.82719304818
Ga 9.8925109001 8.87643656557 4.79678927318
Ga 1.8270216707000002 4.870937680769999 4.85715855488
Ga 7.194480640700001 4.851777480769999 4.82675477988
In 3.6563928490200004 4.33228654337 9.74378181728
Ga 9.02385181902 4.31312634337 9.71337804228
Ga 3.72565605095 1.4545558323499999 7.6783611539050005
Ga 9.093115020950002 1.43539563235 7.647957378905001
In 1.7341373694100002 7.7334805294699995 2.7717670161749997
Ga 7.10159633941 7.71432032947 2.7413632411749997
Ga 4.411821527049999 6.01851750135 2.762806113155
In 9.779280497050001 5.99935730135 2.732402338155
Ga 1.0479718933100002 3.16951886047 7.687322056925001
Ga 6.415430863310001 3.1503586604700002 7.656918281925001
O 4.52111631859 6.14998114417 8.694506576665
O 9.888575288590001 6.13082094417 8.664102801665
O 0.9504876514500001 3.04564914881 3.8310276944550004
O 6.31794662145 3.0264889488099995 3.8006239194550004
O 3.6289518513300005 1.5507355307700001 3.821261503115
O 8.99641082133 1.5315753307700002 3.790857728115
O 1.8426521187100002 7.64489476221 8.704272768005
O 7.21011108871 7.62573456221 8.673868993005
O 2.8532501531500003 0.09499047425 6.141426778185
O 8.220709123150002 0.07583027425 6.111023003185
O 2.58893886297 9.08172663169 1.215171543175
O 7.9563978329700005 9.06256643169 1.184767768175
O 5.25700249965 4.652820879249999 1.2161425294350001
O 10.62446146965 4.633660679249999 1.185738754435
O 0.18518651647 4.52389622669 6.1404557919250005
O 5.55264548647 4.50473602669 6.1100520169250006
O 0.11413176701 7.58658279137 1.156342871835
O 5.48159073701 7.56742259137 1.125939096835
O 5.3271658868700005 1.5895611876899998 6.043621026805
O 10.694624856870002 1.5704009876899998 6.013217251805
O 2.64844167291 3.01112500237 6.053655647585
O 8.015900642910001 2.9919648023699996 6.023251872585
O 2.79285598097 6.165018976690001 1.146308251055
O 8.16031495097 6.145858776690001 1.115904476055
O 5.279852157760001 7.660115445639999 6.18822781386
O 10.647311127759998 7.640955245639999 6.15782403886
O 0.16333964088 1.51724642804 1.3445842330600002
O 5.530798610880001 1.49808622804 1.31418045806
O 2.85259442508 3.0663496494399998 1.3236782199600001
O 8.22005339508 3.04718944944 1.2932744449600002
O 2.59059737356 6.11101222424 6.2091338269600005
O 7.95805634356 6.09185202424 6.178730051960001
O 1.99142296861 1.58278698158 8.461158241345
O 7.358881938610001 1.56362678158 8.430754466345
O 3.4771726538700003 7.610909008179999 3.535734853095
O 8.84463162387 7.591748808179999 3.505331078095
O 0.7882428872700001 6.15349304098 3.556305329395
O 6.1557018572699995 6.13433284098 3.525901554395
O 4.6803527352100005 3.04020294878 8.440587765045
O 10.047811705210002 3.0210427487800002 8.410183990045
O 4.53736732668 0.02538918522 8.78523516842
O 9.90482629668 0.00622898522 8.75483139342
O 0.9350165853200002 9.17074259378 3.87735422258
O 6.30247555532 9.15158239378 3.8469504475800003
O 3.602560193840001 4.59513723462 3.87886206772
O 8.97001916384 4.57597703462 3.84845829272
O 1.8698237181600001 4.600994544379999 8.78372732328
O 7.2372826881600005 4.581834344379999 8.753323548280001
