40

Al -0.0040114045309692 0.0052769821454141 1.8501589244337475
Al -0.0273562354690308 0.0359869878545859 12.617371995566252
Al -1.451631820238949 4.267765236224923 4.726616794097204
In -0.0108470553412033 1.773481878347814 4.741109602560016
Al 1.428208659870321 4.265549931687956 4.811272945213642
Al 1.5032951801296792 0.9066323783120441 9.800717264786357
In 4.383135660238948 0.9044170737750772 9.885373415902796
Al 2.9423508953412028 3.3987004316521863 9.870880607439984
Al -0.0065736691790576 3.4292191686906306 2.5228209464942624
Al 2.9380775091790574 1.7429631413093696 12.089169263505736
In -0.0185164533159224 3.444929840145036 8.031128194695818
In 2.950020293315922 1.727252469854964 6.580862015304183
Al -0.01568382 0.020631985 7.23376546
Al 2.96465145 -0.002280545 0.087149265
Al -1.48321571 2.567739715 -0.01491962
Al 1.4814357399999998 2.56545917 0.072229645
O 1.471941004648989 2.5767774931253666 3.7186570998065425
O -0.0096854397177465 5.141765875020744 3.7037534661793723
O -1.4895338213223361 2.5790555945213995 3.63160121524399
O 4.421037661322336 2.5931267154786006 10.980388994756009
O 1.4595628353510108 2.595404816874633 10.893333110193456
O 2.941189279717746 0.0304164349792555 10.908236743820627
O -0.0302214158482172 3.460327658494894 13.429746240344661
O 2.961725255848217 1.7118546515051063 1.1822439696553386
O -0.0081257720855328 0.0106894116217944 3.747806940411158
O -0.0232418679144672 0.0305745583782056 10.71972397958884
O -1.4093412373601737 4.237701351306601 1.2086164326356477
O -0.0032317419457198 1.8034477422922366 1.2227604436574668
O 1.4011903167043582 4.235539362354085 1.2912351698892401
O 1.5303135232956409 0.9366429476459164 13.32075504011076
O 4.340845077360173 0.9344809586933992 13.403373777364353
O 2.934735581945719 3.3687345677077634 13.389229766342533
O -1.6202991198161873 4.371248931332231 8.490654768444053
O -0.0189518046638113 1.5990000460872278 8.506762670530726
O 1.5804737737099321 4.36878675095738 8.584745088944537
O 1.3510300662900674 0.8033955590426204 6.027245121055462
O 4.551802959816186 0.8009333786677684 6.121335441555947
O 2.9504556446638106 3.5731822639127726 6.105227539469275
O -0.0142948369771112 3.4393763254414687 6.0840143884251425
O 2.945798676977111 1.7328059845585317 8.527975821574858
