80

Al 6.756407794999999 2.253838935 6.7171257675
Al 2.24908208 6.73062058 6.7441012475
Al 6.72437914 6.755602305 2.2347722374999996
Al 6.741372435 6.74574078 6.726856822499999
Al 2.2320887849999997 6.740482105 2.2520166625
Al 6.7394145 2.2637004600000004 2.2250411825
Al 2.26411744 2.238718735 6.734370192499999
Al 2.247124145 2.24858026 2.2422856075
Al 6.741415871979999 4.199271294540001 4.47528729076
Al 2.21709686198 8.68591446454 0.01017818576
Al 6.722377768019999 4.820031470460001 -0.01547387076
Al 4.48557506594 6.7437820262 4.18397499072
Al 0.02531336594 2.2268984562000003 8.68357294572
Al -0.00440420094 6.7273206588 4.81214291928
Al 4.19726919336 4.491201583900001 6.7317861284
Al 8.687601613359998 0.0242814639 2.2127260634
Al 4.8232560416400005 0.0013560861 6.7197098315999995
Al 2.2470807080199995 4.795049745460001 4.49385513924
Al 6.73741312802 0.32812962546 -0.02520492576
Al 2.2321322219799997 4.1940126195400005 0.00044713076
Al 4.50292151406 2.2505390138 4.78516743928
Al -0.02139749594 6.7371821838 0.32005833428
Al 0.00832007094 2.2367599812 4.19148836072
Al 4.791227386640001 4.5031194561 2.2373563015999998
Al 0.33096568664 -0.0137641139 6.7369542566
Al 4.19531125836 0.0091612639 2.2299704884
Al 2.2621160680199996 0.3031479004600001 4.484124084239999
Al 4.48592821906 2.2604005388000004 0.29308285428
Al 0.29893703164 4.4879992561 2.2546007265999997
Al 6.7263805119799995 8.69117313954 4.4850183457599995
Al 4.50256836094 6.7339205012 8.67605957572
Al 8.689559548359998 4.506321783900001 6.714541703399999
O 5.580977591719999 3.51847796999 5.87984157353
O 3.4160323402399997 7.999414185590001 7.586873756489999
O 7.893419864359999 5.49467120341 1.38303262751
O 5.580811653679999 5.47323924101 7.5731081174699995
O 5.88852985605 5.582084277650001 3.50225196807
O 7.60184129733 3.42179506225 7.983181742869999
O 1.39583019047 7.89845341215 5.483105420729999
O 7.585040106149999 5.583469847950001 5.454316943329999
O 3.5143163510899997 5.892970926040001 5.569466889209999
O 7.99279662913 7.60177975176 3.39968074009
O 5.49682681927 1.4025334952400001 7.88810124911
O 5.46730165051 7.58851842696 5.565607196589999
O 3.4075189882799997 5.475843070010001 3.0893008564699995
O 5.5724642397599995 0.99490685441 1.3822686735099998
O 1.0950767156399999 3.49964983659 7.586109802489999
O 3.4076849263199995 3.52108179899 1.3960343125299999
O 3.0999667239499993 3.41223676235 5.466890461929999
O 1.3866552826699998 5.572525977750001 0.98596068713
O 7.592666389529999 1.09586762785 3.48603700927
O 1.4034564738499997 3.4108511920500004 3.51482548667
O 5.474180228909999 3.1013501139599997 3.3996755407899997
O 0.9956999508699999 1.39254128824 5.56946168991
O 3.49166976073 7.591787544760001 1.0810411808899998
O 3.52119492949 1.4058026130399999 3.40353523341
O 1.05665858172 8.00512113999 1.41473246853
O 7.90636476024 3.53249406559 3.0678136914899996
O 3.4331581643599995 0.97778763341 5.88263058251
O 1.0865633636799998 0.97607872101 3.0885369024699996
O 1.4282681560499997 1.0652007076499999 8.001849923069999
O 3.0775222873299994 7.90843823225 3.51807263787
O 5.8861626104700004 3.43153329215 0.9640453557299999
O 3.0907918161499994 1.08630932795 0.96974572833
O 8.00464877109 1.42605080604 1.05040682421
O 3.5325349291299997 3.08489618176 7.89927869509
O 0.9725078092699999 5.88917666524 3.4229921441099997
O 0.9730533605099999 3.09135790696 1.08103598159
O 7.93183799828 0.9891999000100001 7.554409961469999
O 1.08213181976 5.46182697441 5.90132873851
O 5.55533841564 8.016533406590002 3.0865118474899997
O 7.90193321632 8.018242318990001 5.88060552753
O 7.560228423949999 7.92912033235 0.9672925069299999
O 5.91097429267 1.08588280775 5.451069792129999
O 3.1023339695299996 5.562787747850001 8.00509707427
O 5.89770476385 7.90801171205 7.999396701669999
O 0.9838478089099999 7.56827023396 7.918735605789999
O 5.45596165087 5.90942485824 1.06986373491
O 8.01598877073 3.10514437476 5.54615028589
O 8.01544321949 5.90296313304 7.888106448409999
