80

In 1.69112453797 7.66860906595 6.674963600359999
Al 6.95364319297 7.65559627595 6.651061595359999
In 3.6325077856099997 1.33654645591 1.87472298172
In 8.89502644061 1.32353366591 1.8508209767200001
In 1.00569827975 3.1596495569099994 1.88126934898
In 6.268216934749999 3.1466367669099995 1.85736734398
Al 4.317934043830001 5.84550596495 6.6684172331
Al 9.58045269883 5.83249317495 6.6445152280999995
Al 0.956485802805 5.91509958459 -0.021883656855
In 6.219004457805 5.902086794590001 -0.045785661855
Ga 4.349921207195 3.07898722041 4.781261941855
In 9.612439862195002 3.0659744304100003 4.757359936855
Al 1.714608576815 1.43077186341 4.798135978435
In 6.977127231815 1.4177590734099998 4.774233973435
Al 3.635517503185 7.591408131589999 9.581314126565
Al 8.898036158185 7.578395341589999 9.557412121565
Al 0.9284393495700001 0.29567053809 9.60563354274
Ga 6.19095800457 0.28265774809 9.58173153774
In 4.42159929229 8.72645327053 4.75457641862
In 9.68411794729 8.713440480529998 4.73067441362
Ga 1.78064728399 4.77601634553 4.77829989392
In 7.0431659389900005 4.76300355553 4.75439788892
In 3.5693913578700003 4.2461074630899995 9.581910067439999
Al 8.831910012869999 4.233094673089999 9.558008062439999
Al 3.6426907115050002 1.4251049003799998 7.550423016575
Ga 8.905209366505 1.41209211038 7.526521011575
Al 1.6888110446750002 7.58510739568 2.730876493105
In 6.951329699675 7.572094605679999 2.7069744881049997
Al 4.315973011655 5.90589314268 2.7239020359249997
In 9.578491666655 5.892880352680001 2.7000000309249996
Al 1.0155287445249999 3.1043191533800005 7.5573974737550005
Al 6.278047399525001 3.0913063633800006 7.533495468755
O 4.416406375085001 6.030652072760001 8.553009863335
O 9.678925030085 6.01763928276 8.529107858335
O 0.9243638239350002 2.98551597958 3.767744872185
O 6.186882478935 2.9725031895800003 3.743842867185
O 3.552054482595 1.5221349985800001 3.760128280125
O 8.814573137595 1.5091222085800002 3.736226275125
O 1.788715716425 7.49403305376 8.560626455395
O 7.051234371425 7.48102026376 8.536724450394999
O 2.790519848285 0.09177637876 6.038235821575
O 8.053038503284998 0.07876358876 6.014333816575
O 2.5271666817750003 8.909558469259999 1.203120992985
O 7.789685336775 8.896545679259999 1.179218987985
O 5.147808118035 4.56840052826 1.204066199325
O 10.410326773035 4.55538773826 1.180164194325
O 0.169878412025 4.43293431976 6.037290615234999
O 5.432397067025 4.41992152976 6.013388610235
O 0.102445621435 7.44045891514 1.141543262405
O 5.364964276434999 7.4274461251399995 1.1176412574049999
O 5.214541403505001 1.5604264418399998 5.945892403035
O 10.477060058505 1.54741365184 5.921990398035
O 2.5866745142850003 2.95186299884 5.953723040054999
O 7.849193169285001 2.93885020884 5.929821035054999
O 2.730312510655 6.049022358139999 1.1337126253849998
O 7.992831165655 6.03600956814 1.109810620385
O 5.16145496402 7.51447427834 6.0920321296
O 10.423973619020002 7.5014614883399995 6.0681301246
O 0.1570185093 1.4873662471000002 1.32248597772
O 5.4195371643 1.4743534571 1.2985839727200001
O 2.7920227362 3.0096788621000004 1.30598651982
O 8.054541391199999 2.9966660721 1.28208451482
O 2.52645073712 5.99216166334 6.1085315875
O 7.788969392119999 5.97914887334 6.0846295825
O 1.941374848475 1.5484500953500002 8.317805116915
O 7.203893503475 1.5354373053500001 8.293903111915
O 3.397034520765 7.46620092473 3.483465740325
O 8.659553175765 7.4531881347299995 3.4595637353249997
O 0.7622505820650002 6.03381883973 3.4996976420249997
O 6.024769237065 6.02080604973 3.4757956370249996
O 4.576158787174999 2.98083218035 8.301573215214999
O 9.838677442175001 2.96781939035 8.277671210214999
O 4.4388347874 0.02339823156 8.6380558062
O 9.7013534424 0.01038544156 8.6141538012
O 0.9025474786000001 8.993163125439999 3.8173799348
O 6.165066133599999 8.98015033544 3.7934779298000003
O 3.5228364537400005 4.5081163364400005 3.81875323106
O 8.78535510874 4.49510354644 3.79485122606
O 1.81854581226 4.50844502056 8.63668250994
O 7.081064467260001 4.49543223056 8.61278050494
