80

Ga 1.6249952977600002 7.344784634939999 6.43368555153
Ga 6.650307617760001 7.321994409939999 6.41482180153
Al 3.4699956522399997 1.2725193136399997 1.80824946443
Al 8.495307972240001 1.2497290886399999 1.78938571443
Al 0.9651906100800001 3.0268781628399997 1.81514746153
In 5.99050293008 3.0040879378399996 1.79628371153
Al 4.129800339920001 5.59042578574 6.42678755443
Al 9.155112659920002 5.56763556074 6.407923804429999
Al 0.92510533864 5.6734954940249995 -0.01163053035
Al 5.950417658640001 5.650705269025 -0.03049428035
Al 4.15630640136 2.938713415975 4.60737200035
Al 9.18161872136 2.915923190975 4.58850825035
Al 1.63649872808 1.3624583920750002 4.61911196215
Al 6.661811048080001 1.3396681670750001 4.60024821215
Al 3.47937801192 7.262682087925 9.23092784785
Ga 8.504690331920001 7.239891862925 9.21206409785
Ga 0.8798490123600001 0.26794588113 9.24149861316
In 5.9051613323600005 0.24515565613 9.22263486316
Al 4.2359587976399995 8.35716873573 4.59003260016
Ga 9.261271117640002 8.33437851073 4.57116885016
Al 1.7062011928400003 4.57200917423 4.60498381316
Ga 6.731513512840001 4.549218949229999 4.58612006316
Ga 3.40960661716 4.053105442630001 9.22654740016
Al 8.43491893716 4.03031521763 9.20768365016
Al 3.4755650006400005 1.349245577415 7.26824172468
Ga 8.50087732064 1.326455352415 7.249377974680001
Al 1.6256296493600002 7.270386053764999 2.6394669924799996
Ga 6.65094196936 7.247595828764998 2.6206032424799997
Al 4.13105656224 5.654083738165 2.63236829218
Ga 9.15636888224 5.631293513165 2.61350454218
Ga 0.9701380877600001 2.9655478930150005 7.27534042498
Ga 5.995450407760001 2.9427576680150005 7.25647667498
O 4.22276312776 5.765143606635 8.24005846632
O 9.24807544776 5.742353381635 8.22119471632
O 0.8857381022400002 2.857229517385 3.6295614989200002
O 5.911050422240001 2.834439292385 3.6106977489200003
O 3.3920978212000006 1.448012002185 3.62216174382
O 8.417410141200001 1.425221777185 3.60329799382
O 1.7164034088 7.174361121835 8.24745822142
O 6.741715728800001 7.1515708968350005 8.228594471420001
O 2.6603172552800003 0.073825889555 5.81093729156
O 7.685629575279999 0.051035664555 5.79207354156
O 2.42998645472 8.541719365505 1.1724131501600001
O 7.455298774720001 8.518929140504998 1.15354940016
O 4.923908759280001 4.371371178304999 1.16902745906
O 9.949221079280003 4.3485809533049995 1.15016370906
O 0.16639495072 4.244174076755 5.81432298266
O 5.19170727072 4.221383851755 5.79545923266
O 0.11169289264 7.137019947045 1.1091132962399999
O 5.13700521264 7.114229722045 1.09024954624
O 4.978059377360001 1.478318402895 5.72616837204
O 10.00337169736 1.455528177895 5.70730462204
O 2.47138872304 2.8185076512949996 5.73366847874
O 7.496701043040002 2.7957174262949995 5.71480472874
O 2.6183635469600004 5.796830698645 1.1016131895399999
O 7.64367586696 5.774040473645 1.08274943954
O 4.93904612324 7.190923590209999 5.87543257767
O 9.964358443240002 7.168133365209999 5.85656882767
O 0.15187795676 1.4248544331100002 1.2744952341700002
O 5.177190276760001 1.40206420811 1.25563148417
O 2.67114149316 2.88030999011 1.26293088767
O 7.696453813160001 2.85751976511 1.24406713767
O 2.41978258684 5.735468033210001 5.88699692417
O 7.4450949068400005 5.7126778082100005 5.8681331741700005
O 1.8505918139200002 1.469822137895 8.00528007719
O 6.875904133920001 1.447031912895 7.98641632719
O 3.25604830608 7.151852681344999 3.36460777769
O 8.281360626080001 7.129062456344999 3.34574402769
O 0.7371734388800001 5.782682457845 3.37604668469
O 5.7624857588800005 5.759892232845 3.35718293469
O 4.3694666811200005 2.8389923613950003 7.99384117019
O 9.39477900112 2.8162021363950003 7.97497742019
O 4.23221846644 0.00121431825 8.31308586705
O 9.257530786440002 -0.02157590675 8.29422211705
O 0.8767652735600001 8.621339847749999 3.6860942749500003
O 5.902077593559999 8.59854962275 3.6672305249500003
O 3.3700657074 4.312935126949999 3.68290928705
O 8.3953780274 4.29014490195 3.6640455370500002
O 1.7389180326000002 4.30961903905 8.31627085495
O 6.764230352600001 4.286828814050001 8.29740710495
