80

Al 1.6063484576999998 7.30338099569 6.404784652179999
Al 6.6051911327 7.2851850356900005 6.388802657179999
Ga 3.4495668880799992 1.26801158347 1.80163891366
In 8.44840956308 1.24981562347 1.78565691866
Al 0.956410926 3.01027665973 1.80747238956
In 5.955253600999999 2.9920806997300002 1.79149039456
Al 4.09950441978 5.561115919430001 6.39895117628
Al 9.09834709478 5.542919959430001 6.382969181279999
Al 0.9152018340049999 5.642406038700001 -0.009888743505
Al 5.9140445090050004 5.624210078700001 -0.025870738505
Al 4.129230235994999 2.9247762013000003 4.587860378505
Al 9.128072910995 2.9065802413000004 4.571878383505
Ga 1.624101823855 1.35514771738 4.597816643205
Al 6.6229444988549995 1.3369517573799998 4.581834648205
Ga 3.4494756161450004 7.2227206626200005 9.189423851795
Al 8.448318291145 7.2045247026200006 9.173441856795
In 0.86985229533 0.26501958648 9.19705419198
Al 5.868694970329999 0.24682362648 9.18107219698
Al 4.20366685393 8.312827421240002 4.5717677653
Al 9.202509528930001 8.294631461240002 4.5557857703
Al 1.6905981640299999 4.546709944040001 4.5844583148
Al 6.6894408390299995 4.528513984040001 4.5684763198
Ga 3.38292098523 4.03113706368 9.18436364248
Al 8.38176366023 4.01294110368 9.16838164748
Al 3.452014262035 1.3430112749900003 7.235070040645001
Al 8.450856937034999 1.3248153149900002 7.219088045645
Al 1.609147250345 7.230304809370001 2.6290219199949996
Al 6.607989925345 7.212108849370001 2.613039924995
Al 4.102799479785 5.625320295190002 2.623017551295
Al 9.101642154784999 5.607124335190002 2.6070355562949996
Ga 0.9583620325949999 2.9479957891700006 7.241074409345
Al 5.957204707594999 2.9297998291700003 7.225092414345
O 4.190817571975 5.734501774150001 8.203482562925
O 9.189660246974999 5.716305814150001 8.187500567925
O 0.876522758845 2.8410797718900005 3.6129743960350003
O 5.875365433844999 2.8228838118900006 3.596992401035
O 3.3709193893250005 1.44201610083 3.606713688135
O 8.369762064324998 1.42382014083 3.590731693135
O 1.696420941495 7.13356544521 8.209743270825
O 6.695263616494999 7.1153694852100005 8.193761275825
O 2.6430039924949997 0.07438901923 5.784143438365
O 7.641846667494999 0.05619305923 5.768161443365
O 2.408947582965 8.49555024489 1.169819562515
O 7.407790257965 8.47735428489 1.153837567515
O 4.893418866244999 4.35087533223 1.166976710615
O 9.892261541244999 4.33267937223 1.150994715615
O 0.158532709215 4.21906393189 5.786986290265
O 5.1573753842149985 4.20086797189 5.771004295265
O 0.104160049065 7.096709136049999 1.105248780535
O 5.103002724064999 7.0785131760499995 1.089266785535
O 4.9473252004749995 1.4730591498299999 5.701365918585
O 9.946167875475 1.45486318983 5.685383923585
O 2.4526804363149997 2.80348253985 5.707712072885
O 7.451523111315001 2.78528657985 5.6917300778849995
O 2.5988048132249997 5.76628574603 1.098902626235
O 7.5976474882249985 5.74808978603 1.082920631235
O 4.90336877901 7.15346061775 5.85106056554
O 9.902211454009999 7.1352646577500005 5.83507857054
O 0.14910741311 1.4166709968900002 1.2686692748200001
O 5.147950088109999 1.39847503689 1.2526872798200002
O 2.65380159131 2.8661789889900007 1.25886254132
O 7.652644266309999 2.8479830289900008 1.2428805463200001
O 2.3986746008099997 5.70395262565 5.86086729904
O 7.397517275809999 5.6857566656500005 5.84488530404
O 1.8350949367949998 1.4612914277800002 7.967641596565
O 6.833937611794999 1.44309546778 7.951659601565
O 3.230671544045 7.1137130667 3.351514843955
O 8.229514219044999 7.0955171067 3.335532848955
O 0.726287532945 5.750005425900001 3.361214769455
O 5.725130207944999 5.731809465900001 3.345232774455
O 4.3394789478949995 2.8249990685800004 7.957941671065
O 9.338321622894998 2.8068031085800005 7.941959676065
O 4.20529432601 0.00298573857 8.27497034538
O 9.20413700101 -0.01521022143 8.25898835038
O 0.8624540399899999 8.572745413429999 3.67041637762
O 5.86129671499 8.554549453429999 3.6544343826200003
O 3.34642905591 4.29078993869 3.6677444185200003
O 8.34527173091 4.27259397869 3.65176242352
O 1.72131931009 4.2849412133100016 8.27764230448
O 6.72016198509 4.266745253310001 8.26166030948
