30

Ga -0.00044818760756 0.00215360363012 1.9837333578992
Al -0.00196393260756 0.00943696863012 8.692606757899199
Al -0.00258330239244 0.01241312636988 11.4340134421008
Ga -0.00106755739244 0.00512976136988 4.7251400421008
Ga 2.4709868905769317 1.4479009327095667 6.455055696523777
Al 2.469471145576932 1.4551842977095668 13.163929096523777
Ga 2.4718832657920515 1.4435937254493267 2.4875889807253775
Al 2.4703675207920517 1.4508770904493267 9.196462380725377
Ga -0.0141289357920512 2.873289614550673 10.925931389274622
Ga -0.0126131907920512 2.866006249550673 4.217057989274623
Al -0.0132325605769312 2.8689824072904333 6.958464673476223
Ga -0.0117168155769312 2.861699042290433 0.2495912734762227
O 3.4373040452212003 0.0177632842316 3.3547466044792
O 0.7531284713152 1.3216993991396002 3.3531418909051998
O -1.7319203140364 2.9737789741288 3.3511951746156
O 1.7046258586848002 2.9951839408603997 10.0603784790948
O -0.7668761859636001 1.3227456758712002 10.061878415384399
O 1.5162152947788001 0.0171621357684 10.0634469755208
O 0.9521882934056913 1.4431519233110466 7.825622163103777
O 3.224563549499692 2.767446728219046 7.824464229529777
O 3.2352797741480916 0.1375683832082468 7.827190723240177
O 1.7183066068692914 0.1240479299398468 1.1181804477193773
O 1.7075903822208915 2.7539262749506466 1.1154539540089772
O 3.9906818629632914 1.4483427348478466 1.1170225141453773
O -1.532927532963291 2.868540605152153 12.296497855854623
O 0.739447723130709 4.1928354100601535 12.295339922280622
O 0.7501639477791089 1.5629570650493532 12.298066415991023
O -0.766809219499691 1.5494366117809533 5.589056140470223
O -0.7775254441480911 4.179314956791753 5.586329646759823
O 1.5055660365943089 2.873731416688953 5.587898206896223
