80

Al 7.084637262499999 2.3606517475000004 7.0643137949999995
In 2.3593013325 7.068424567500001 7.08071323
Al 7.066778127499999 7.084190787500001 2.35465803
Al 7.076021452499999 7.077114472500001 7.071293594999999
In 2.3500580075 7.075500882500001 2.364077665
Al 7.0753939374999995 2.3677280625000003 2.34767823
Al 2.3679171424999996 2.3519618425 7.07373343
In 2.3586738174999997 2.3590381575 2.357097865
In 7.07629357008 4.401701802200001 4.7090112861
In 2.34171431508 9.116550937200001 0.0087751561
Al 7.06587849492 5.050217047800001 -0.0066750261
Al 4.7124111839 7.076788866920001 4.39695441158
Al 0.0135501989 2.34455992192 9.116029811579999
In -0.0030518439 7.067136583080001 5.04783648342
Al 4.40123232934 4.71394724396 7.07315404768
In 9.11732493434 0.01325073896 2.34011904768
In 5.05132207566 -0.00133365396 7.06489317732
Al 2.35840169992 5.0344508278000015 4.719380173899999
Al 7.07449430492 0.3337543228000001 -0.0136548261
Al 2.3503301250799997 4.400088212200001 0.0017953561
In 4.722284086099999 2.3593637630800006 5.03143704842
Al -0.0122951689 7.074212898080001 0.33120091842
Al 0.0043068739 2.35163623692 4.39939424658
Al 5.03346294066 4.72220538604 2.3552374123199997
Al 0.33460195566 -0.01002355896 7.07431281232
Al 4.40060481434 0.00456083396 2.34953868268
Al 2.3670175099199997 0.3179881028000001 4.7124003738999996
Al 4.713040761099999 2.3664400780800006 0.31480148342
In 0.31674282066 4.71351548104 2.3646570473199997
Al 7.06767776008 9.1181645272 4.7159910861
In 4.7216545088999995 7.069712551920001 9.11358997658
Al 9.117952449339999 4.72263714896 7.06373441268
O 5.85412262778 3.6897652078700003 6.18200371748
O 3.58495665038 8.39939608403 7.966959914719999
O 8.293817272019998 5.75773802157 1.46351313508
O 5.853841624819999 5.74348226153 7.958501882719999
O 6.18488147319 5.85428125603 3.68470540271
O 7.971747152109999 3.5865702373100006 8.39444888095
O 1.46771122169 8.295066694690002 5.75420764005
O 7.96239832801 5.85446338697 5.73761672629
O 3.68863291412 6.186019970310002 5.85041944363
O 8.397676693560001 7.97149649111 3.57963914223
O 5.758545225439999 1.4696663600900002 8.29198317657
O 5.7418833418799995 7.96319875349 5.84893688757
O 3.5805726422200004 5.74638742213 3.2463877425199996
O 5.84973861962 1.0367565459699999 1.46143154528
O 1.14087799798 3.6784146084300002 7.964878324919999
O 3.58085364518 3.6926703684700004 1.46988957728
O 3.24981379681 3.5818713739700003 5.74368605729
O 1.46294811789 5.84958239269 1.0339425790499999
O 7.966984048309999 1.14108593531 3.67418381995
O 1.47229694199 3.5816892430300005 3.69077473371
O 5.7460623558799995 3.25013265969 3.57797201637
O 1.0370185764400002 1.4646561388900001 5.84875231777
O 3.67615004456 7.966486269910001 1.13640828343
O 3.69281192812 1.47295387651 3.57945457243
O 1.11954337278 8.404614342870001 1.48176758748
O 8.301049255379999 3.6986995790300004 3.2339249147199998
O 3.59495628702 1.0255090765700001 6.18258853508
O 1.13649398982 1.02540594653 3.2443061527199997
O 1.4860204881899999 1.12205231103 8.40378080271
O 3.2371678971099995 8.30141937231 3.69421275095
O 6.18380382669 3.5943701896900007 1.0211726400499999
O 3.2450506930099996 1.13638707197 1.02342099629
O 8.404725519120001 1.4853234653100003 1.11738444363
O 3.69881570856 3.23926754611 8.29871454223
O 1.0239659704400002 6.184515495090001 3.59174704657
O 1.0245357068799998 3.2451224384899997 1.13474115757
O 8.315151897219998 1.03153828713 7.946623872519999
O 1.13364601462 5.73745305097 6.19446654528
O 5.839738982979999 8.41064355343 3.2458029249199996
O 8.298201280179999 8.41074668347 6.18408530728
O 7.948674781809999 8.31410031897 1.02461065729
O 6.19752737289 1.13473325769 5.73417870905
O 3.2508914433099996 5.84178244031 8.40721881995
O 6.189644576989999 8.29976555803 8.40497046371
O 1.0299697508799999 7.95082916469 8.31100701637
O 5.73587956144 6.196885083890002 1.12967691777
O 8.41072929956 3.25163713491 5.836644413429999
O 8.41015956312 6.191030191510001 8.29365030243
