40

Ga 4.573787742772492 0.8349773762890657 2.677194160759949
Ga 3.0737295927724917 3.492784201289066 2.6670977957599487
In 1.522872827772492 0.8663820062890657 2.5659291607599486
In 1.5125344922275075 4.394719183710935 12.607115509240051
Al -1.5383804227724924 4.426123813710935 12.495850509240052
Ga -0.0383222727724923 1.7683169887109342 12.50594687424005
In 0.0 0.0 0.0
Ga -0.02486482875 0.0031113 5.614015275
Ga -0.04144138125 0.0051855 9.356692125
Al 0.014526401522492 3.525225931289066 4.427171220759949
Ga 3.0208809184775074 1.7358752587109343 10.745873449240051
Ga 3.01776181 -0.02725623 7.5966187000000005
Al -1.533211255 2.6619552250000003 7.475257335
In 1.5177036599999998 2.6305505950000003 7.586522335
Ga -0.010338427227508 3.528337231289066 10.04118649575995
In 3.0457457472275076 1.7327639587109342 5.131858174240051
O -1.5494409470500004 4.4557712124 1.2911530358
O 0.01061952895 1.6916521144 1.3016532554000002
O 1.6235105645499996 4.4231103972 1.4068686358000002
O 1.4118967554500002 0.8379907928000001 13.7661760342
O 4.58484826705 0.8053299776000001 13.8818916342
O 3.0247877910499996 3.5694490756000006 13.871391414600001
O -0.026583448677508 3.530369947289066 13.70900980875995
O 3.0619907686775076 1.7307312427109343 1.464034861240051
O 4.496421100177508 0.8729215211109345 6.443203940040052
O 3.056365276177507 3.424416073110935 6.433511429640051
O 1.5675427817775076 0.9030699659109345 6.336389540040051
O 1.4678645382224924 4.358031224089067 8.836655129959949
O -1.4610137801775078 4.388179668889067 8.72984072995995
O -0.0209579561775078 1.8366851168890659 8.73953324035995
O -0.01624502145 0.002032716 3.667823313
O -0.05006118855 0.006264084 11.302884087
O 0.005906594222492 3.526304515289066 6.37336318275995
O 3.0295007257775075 1.7347966747109342 8.79968148724005
O 1.5950703942775075 2.5926063963109347 3.820512408440051
O 3.0351262182775076 0.0411118443109343 3.830204918840051
O 4.523948712677507 2.5624579515109347 3.927326808440051
O -1.488541392677508 2.698643238489066 11.24571786155995
O 1.440336925722492 2.668494793689066 11.352532261559949
O 0.000281101722492 5.219989345689066 11.342839751159948
