80

Ga 7.371876207499999 2.4534468775000002 7.3644231
In 2.4562841325 7.361406212500001 7.37385985
Al 7.364305107499999 7.370829357500002 2.457908825
In 7.368199477499999 7.3652924775000015 7.369796474999999
Ga 2.4523897625 7.3669430925000015 2.4619722
In 7.367981837499999 2.4589837575 2.45253545
In 2.4599608625 2.4495606125000005 7.368486474999999
In 2.4560664925 2.4550974925 2.456598825
Ga 7.36834067514 4.5781326167000005 4.9108005729999995
Ga 2.44885423014 9.4916288317 0.008349673
In 7.36394626986 5.251680498300001 -0.000356298
In 4.91002980284 7.3664942928400015 4.5818759773
In 0.00568555784 2.4452255478400002 9.4924536273
Al -0.00135590784 7.361855012160001 5.2539560727
In 4.58006992654 4.9071622789800005 7.3694177844999995
In 9.49176763154 0.00473982398 2.4480933845
Al 5.2517671434599995 -0.00415478898 7.3634917904999995
In 2.4559252948599997 5.2422573533 4.915594726999999
Ga 7.367622999859999 0.3398348983 -0.005729673
In 2.45253096014 4.5797832317000005 0.002976298
In 4.9142361671599994 2.45389567716 5.2445193227
In -0.00525027784 7.367391892160001 0.3420684227
Al 0.00179118784 2.45076242784 4.5805659773
In 5.24419604346 4.91322769102 2.4569775154999998
In 0.33985179846 -0.00804105398 7.3675551655
In 4.5798522865399995 0.00085355898 2.4521567595
Ga 2.4596020248599997 0.3304117533 4.910221352
In 4.910341797159999 2.45943255716 0.3326316727
Al 0.33228069846 4.909341426020001 2.4610408905
Ga 7.364663945139999 9.4899782167 4.916173948
Al 4.91392417284 7.360957412840001 9.4937636273
Ga 9.491985271539999 4.911048543980001 7.365354409499999
O 6.093009238379999 3.83861784124 6.44355999105
O 3.7330774259 8.746516167160001 8.29775354245
O 8.641707793499998 5.987740260640001 1.53190217755
O 6.09287046722 5.9781006559600005 8.292772538949999
O 6.44291918478 6.091457483520001 3.8424279793
O 8.2954585549 3.7296959511600005 8.750208580299999
O 1.5307898855 8.639316850840002 5.9908685247
O 8.291497299819998 6.090504639480001 5.9824831657
O 3.8411229488300003 6.440514755230001 6.094612994749999
O 8.749786545749998 8.29391266823 3.7348639367499996
O 5.98841984165 1.5274843891700003 8.641649566249999
O 5.9813355887699995 8.289063112370002 6.09486175225
O 3.73125673162 5.98177212876 3.3828353089499994
O 6.0911885440999995 1.0738738028400001 1.52864175755
O 1.1825581765 3.8326497093600005 8.29449312245
O 3.73139550278 3.8422893140400003 1.53362276105
O 3.3813467852199994 3.7289324864800006 5.9839673207
O 1.5288074151 6.090694018840001 1.0761867197
O 8.293476084499998 1.1810731191600001 3.8355267753
O 1.5327686701799998 3.7298853305200006 3.8439121343
O 5.983143021169999 3.37987521477 3.73178230525
O 1.07447942425 1.5264773017700002 6.09153136325
O 3.83584612835 8.29290558083 1.1847457337499998
O 3.84293038123 1.5313268576300003 3.73153354775
O 1.1735227933799999 8.752114056240002 1.5411090910499998
O 8.644775130899998 3.84409371216 3.3764291424499997
O 3.7373635485 1.0664715156400002 6.44247982755
O 1.18073748222 1.06790567096 3.3795748889499997
O 1.53857493978 1.17018873852 8.7530056293
O 3.3759721098999997 8.64319216616 3.8477576803
O 6.4424875905 3.7368943958400003 1.0695441247
O 3.3793643148199997 1.1803096544800002 1.0692855156999999
O 8.752820653829998 1.5380923002300002 1.1732885947499998
O 3.8454423007500003 3.3726439232299996 8.64544158675
O 1.06893339665 6.440980604170001 3.7391986662499996
O 1.06920260377 3.37886812737 1.1816641022499998
O 8.650743176619999 1.0682759137600002 8.28528620895
O 1.1794908391 5.9762962578400005 6.44996615755
O 6.0869024215 8.753918454360003 3.3839154724499996
O 8.643528487779998 8.752484299040002 6.44682041105
O 8.285691030219999 8.65020123148 1.0733896707
O 6.4482938601 1.1771978038400002 5.9786376197
O 3.3817783794999996 6.0834955741600005 8.7568511753
O 6.44490165518 8.640080315520002 8.757109784299999
O 1.07144531617 8.282297669770001 8.65310670525
O 5.97882366925 6.44774604677 1.1809537132499999
O 8.75533257335 3.37940936583 6.08719663375
O 8.755063366229999 6.44152184263 8.64473119775
