80

In 1.72587873061 7.77838112896 6.754394851439999
In 7.064135490610001 7.761607968959999 6.726076306439999
In 3.6871737874699995 1.35379765736 1.89497034844
In 9.02543054747 1.3370244973599998 1.86665180344
In 1.0237882573700001 3.2042040007999995 1.9027405710199998
Ga 6.36204501737 3.1874308408 1.87442202602
Ga 4.389264260710001 5.92797478552 6.746624628859999
Al 9.727521020709998 5.91120162552 6.718306083859999
In 0.97425486714 5.997240200119999 -0.025880875235
In 6.312511627140001 5.98046704012 -0.054199420235
In 4.41836350286 3.12169849988 4.836913630234999
Ga 9.756620262859999 3.10492533988 4.808595085235
In 1.74400401206 1.4522056913999999 4.856892631375
Ga 7.08226077206 1.4354325313999998 4.828574086374999
In 3.70047767794 7.700337288599999 9.696100643625
In 9.038734437940002 7.6835641286 9.667782098624999
Al 0.9494914908600001 0.30432007644 9.72651217512
Ga 6.28774825086 0.28754691644 9.698193630119999
Ga 4.494886472499999 8.848155694999999 4.80699717884
In 9.833143232500001 8.831382535 4.778678633839999
Al 1.8132489145000001 4.844221998199999 4.8350731937399996
In 7.1515056745 4.8274488382 4.806754648739999
Al 3.63112904886 4.30825377324 9.69843616022
Ga 8.969385808859998 4.29148061324 9.670117615219999
Al 3.7019858155900005 1.4466257797999997 7.642558979195
Ga 9.04024257559 1.4298526198 7.614240434195
Ga 1.7204021000899998 7.691601776919999 2.7603591142849995
Al 7.05865886009 7.674828616919999 2.7320405692849996
Ga 4.38424250939 5.987097989 2.7520828283449994
Ga 9.722499269390001 5.970324829 2.7237642833449995
In 1.03814540629 3.15112956772 7.650835265135
In 6.37640216629 3.13435640772 7.622516720135
O 4.49074843535 6.116654275080001 8.654934896315
O 9.82900519535 6.0998811150800005 8.626616351314999
O 0.9426345041700002 3.0286973890000004 3.813278827405
O 6.280891264170001 3.0119242290000003 3.7849602824049997
O 3.6071572322700005 1.54304743436 3.8042434464249997
O 8.945413992270002 1.52627427436 3.775924901425
O 1.82622570725 7.60230422972 8.663970277295
O 7.164482467249999 7.585531069719999 8.635651732294999
O 2.8354626968300005 0.0944013706 6.112541270315
O 8.17371945683 0.0776282106 6.084222725315
O 2.57053640973 9.03320723364 1.211917298845
O 7.908793169730001 9.016434073640001 1.183598753845
O 5.22596155383 4.6295061686 1.213003185065
O 10.56421831383 4.6127330086 1.184684640065
O 0.18003755273 4.49810243564 6.111455384095
O 5.518294312729999 4.481329275639999 6.083136839094999
O 0.10986088177 7.545152858919999 1.1521952948249998
O 5.44811764177 7.528379698919999 1.123876749825
O 5.29530841167 1.5819180768399999 6.0163919060149995
O 10.633565171670002 1.5651449168399998 5.988073361014999
O 2.63055824397 2.99461675372 6.025680318675
O 7.9688150039700005 2.97784359372 5.997361773674999
O 2.77461104947 6.13245418204 1.142906882165
O 8.11286780947 6.11568102204 1.1145883371649998
O 5.24561337713 7.619425635319999 6.1614350044199995
O 10.58387013713 7.602652475319999 6.13311645942
O 0.16131926919 1.50878784596 1.3383788541
O 5.49957602919 1.4920146859599999 1.3100603091
O 2.8352807406900005 3.05061591836 1.3188426584
O 8.173537500690001 3.03384275836 1.2905241134
O 2.57165190563 6.077597562920001 6.180971200119999
O 7.90990866563 6.060824402920001 6.15265265512
O 1.97685741698 1.57326084812 8.420937892375
O 7.315114176980001 1.55648768812 8.392619347375
O 3.45372490326 7.570276184839999 3.5212099632649996
O 8.791981663260001 7.5535030248399995 3.4928914182649997
O 0.78004773126 6.1196372096400005 3.5404298693649996
O 6.11830449126 6.10286404964 3.5121113243649997
O 4.65053458898 3.02389982332 8.401717986274999
O 9.98879134898 3.00712666332 8.373399441275
O 4.50948806931 0.02534039996 8.744058535419999
O 9.84774482931 0.00856723996 8.71573999042
O 0.92462095669 9.120481724040001 3.86054263558
O 6.26287771669 9.10370856404 3.83222409058
O 3.5795912215900003 4.570878103479999 3.8621345851599997
O 8.917847981589999 4.55410494348 3.83381604016
O 1.8545178044100001 4.57494402052 8.742466585839999
O 7.1927745644100005 4.55817086052 8.71414804084
