80

Ga 1.6139771786600001 7.32497752259 6.420260675099999
Al 6.6274209636600006 7.30558804259 6.403236065099999
Ga 3.4602947146 1.2711200011500001 1.80547575804
Al 8.4737384996 1.25173052115 1.78845114804
Al 0.96024944932 3.01901322311 1.81163614674
Al 5.973693234319999 2.99962374311 1.79461153674
Ga 4.114022443940001 5.577084300630001 6.414100286399999
Ga 9.127466228939998 5.557694820630001 6.397075676399999
In 0.9191550548949999 5.658581763920001 -0.01070859789
Al 5.932598839895 5.639192283920001 -0.02773320789
Al 4.142875735105 2.93286884108 4.598597992889999
In 9.156319520104999 2.9134793610800003 4.581573382889999
Al 1.6300721623649999 1.3592540727600002 4.60925263749
Ga 6.643515947365 1.3398645927600001 4.59222802749
Al 3.463027417635 7.243990742239999 9.211751067509999
Al 8.476471202635 7.22460126224 9.194726457509999
Al 0.87428785539 0.26667327255 9.22067176671
Al 5.887731640389999 0.24728379255 9.20364715671
Al 4.21874958703 8.33654795403 4.58186570967
Al 9.23219337203 8.317158474029998 4.56484109967
Al 1.6974845461299999 4.560067782830001 4.59550100067
Al 6.71092833113 4.540678302830001 4.57847639067
Ga 3.39555289629 4.04315344375 9.20703647571
Al 8.408996681289999 4.02376396375 9.19001186571
Al 3.4638493902249996 1.3469762973300001 7.25297112957
Al 8.477293175225002 1.3275868173300003 7.23594651957
Ga 1.616014885235 7.25124418421 2.6347258793699995
Al 6.629458670235 7.23185470421 2.6177012693699995
Al 4.116588992275 5.641030049930001 2.6283792002699995
In 9.130032777274998 5.621640569930001 2.6113545902699995
Al 0.9632752831849999 2.9571904316100004 7.25931780867
Al 5.976719068185 2.9378009516100003 7.24229319867
O 4.206001523325 5.75116520423 8.22326840979
O 9.219445308324998 5.73177572423 8.20624379979
O 0.880449335615 2.84955564983 3.62184883287
O 5.893893120615 2.8301661698300005 3.60482422287
O 3.381816705295 1.4458601470700003 3.61522271817
O 8.395260490295 1.4264706670700003 3.59819810817
O 1.704634153645 7.15486070699 8.22989452449
O 6.718077938645 7.13547122699 8.21286991449
O 2.651897729525 0.07468356791 5.798586192389999
O 7.665341514524999 0.05529408791 5.781561582389999
O 2.418148808295 8.519809943270001 1.17144669459
O 7.431592593295 8.50042046327 1.15442208459
O 4.908939342775 4.36253268691 1.16854638789
O 9.922383127775 4.34314320691 1.15152177789
O 0.161107195045 4.231960824270001 5.80148649909
O 5.174550980045 4.212571344270001 5.78446188909
O 0.106295488835 7.11742410167 1.10732257731
O 5.119739273834999 7.09803462167 1.09029796731
O 4.963253948345 1.47688070215 5.7149804807099995
O 9.976697733345 1.4574912221499998 5.6979558707099995
O 2.461622157785 2.8117366610700003 5.72169974061
O 7.475065942785 2.7923471810700002 5.70467513061
O 2.607927279395 5.782568142750001 1.1006033174099998
O 7.621371064394999 5.763178662750001 1.0835787074099998
O 4.920488176389999 7.173805519719999 5.86445697861
O 9.93393196139 7.15441603972 5.84743236861
O 0.15011759965 1.4209002872400003 1.27177196595
O 5.1635613846499995 1.4015108072400002 1.25474735595
O 2.66245843585 2.87404585384 1.26128032545
O 7.675902220849999 2.8546563738400006 1.24425571545
O 2.4081473401899998 5.720659953120001 5.8749486191099995
O 7.421591125189999 5.701270473120001 5.8579240091099996
O 1.842377722225 1.4660544901800001 7.987751772749999
O 6.8558215072249995 1.4466650101800003 7.970727162749999
O 3.242395422055 7.134029476539999 3.3587772971699996
O 8.255839207054999 7.11463999654 3.3417526871699996
O 0.7303851119550001 5.76693333974 3.36915250617
O 5.743828896955 5.74754385974 3.35212789617
O 4.354388032325 2.83315062698 7.977376563749999
O 9.367831817325 2.81376114698 7.960351953749999
O 4.21923396787 0.0030101267 8.29555866189
O 9.23267775287 -0.0163793533 8.27853405189
O 0.86765185413 8.5978758463 3.67882218111
O 5.88109563913 8.5784863663 3.66179757111
O 3.3579135468499994 4.30291950226 3.67610816481
O 8.37135733185 4.28353002226 3.65908355481
O 1.72897227515 4.2979664707400005 8.29827267819
O 6.74241606015 4.27857699074 8.28124806819
