80

Al 1.65212076946 7.43296017103 6.497640779669999
Ga 6.73857008946 7.40760309103 6.475403099669999
Al 3.5139338314999997 1.2866620934900002 1.8246599828499999
Ga 8.600383151499999 1.2613050134900001 1.80242230285
Ga 0.97944206378 3.06269604395 1.83245492699
Ga 6.0658913837799995 3.03733896395 1.81021724699
Al 4.186612537179999 5.656926220570001 6.489845835529999
Ga 9.27306185718 5.631569140570001 6.467608155529999
Al 0.9389211764 5.7394603900200005 -0.01480788866
Al 6.025370496400001 5.7141033100200005 -0.03704556866
Ga 4.2111032036 2.9733320499800002 4.65228606866
In 9.297552523599999 2.94797496998 4.63004838866
Ga 1.65992382984 1.3797858596600001 4.66643261578
Al 6.746373149839999 1.35442877966 4.64419493578
Al 3.5307863901600003 7.35034116034 9.32338714422
Ga 8.617235710160001 7.32498408034 9.30114946422
Al 0.8964656041200001 0.27494172288 9.33875966028
Ga 5.982914924119999 0.24958464288 9.31652198028
Ga 4.294163244199999 8.45515062796 4.632355416559999
Al 9.380612564200002 8.42979354796 4.6101177365599995
Ga 1.7319164426 4.626856986760001 4.6507144257599995
Al 6.8183657626 4.601499906760001 4.62847674576
Ga 3.45871240572 4.10323536408 9.32040065108
Al 8.54516172572 4.07787828408 9.29816297108
Ga 3.5230249862600003 1.36680142477 7.342476588649999
Ga 8.609474306260001 1.34144434477 7.3202389086499995
In 1.6503530658999999 7.3559410641500005 2.6632456582699997
Ga 6.7368023859 7.3305839841500005 2.6410079782699993
Al 4.18553654786 5.7195788293700005 2.6551874352499993
Ga 9.271985867859998 5.6942217493700005 2.6329497552499994
In 0.9878415042999998 3.0031636595500006 7.350534811669999
Ga 6.0742908243 2.9778065795500006 7.328297131669999
O 4.281921243059999 5.83448237249 8.32219764605
O 9.36837056306 5.80912529249 8.299959966049999
O 0.9000822071800001 2.8919350473900005 3.6662210158299997
O 5.98653152718 2.8665779673900005 3.64398333583
O 3.4363032605 1.4650803861300001 3.6577678744899997
O 8.522752580499999 1.43972330613 3.63553019449
O 1.74570018974 7.261337033749999 8.330650787389999
O 6.83214950974 7.23597995375 8.308413107389999
O 2.6963663756200003 0.07615632389 5.87079997745
O 7.782815695619999 0.05079924389 5.848562297449999
O 2.4641549511 8.64110843775 1.17958233019
O 7.5506042711 8.615751357750002 1.15734465019
O 4.98654171962 4.42081946289 1.1763947664499999
O 10.072991039620002 4.39546238289 1.15415708645
O 0.1739796071 4.29644529875 5.873987541189999
O 5.2604289270999995 4.27108821875 5.851749861189999
O 0.11697270622 7.22099893219 1.11769153887
O 5.203422026219998 7.19564185219 1.0954538588699998
O 5.042897647059999 1.49598847617 5.783053303489999
O 10.12934696706 1.47063139617 5.760815623489999
O 2.50633073662 2.8530072795900003 5.79163808427
O 7.5927800566200006 2.8276501995900003 5.76940040427
O 2.65353961666 5.8639801287700015 1.1091067580899998
O 7.739988936659999 5.8386230487700015 1.0868690780899999
O 5.006085141859999 7.27553004233 5.93143903653
O 10.092534461860001 7.25017296233 5.90920135653
O 0.15516852998 1.44204674175 1.28728541955
O 5.24161784998 1.41668966175 1.26504773955
O 2.7057426537800002 2.9133801808500004 1.27336924145
O 7.79219197378 2.8880231008500004 1.25113156145
O 2.45551101806 5.804196603230001 5.945355214629999
O 7.541960338059999 5.778839523230001 5.923117534629999
O 1.8787916057599998 1.4898698195 8.088302667699999
O 6.96524092576 1.4645127395000002 8.066064987699999
O 3.3010148091200002 7.235611533059999 3.3950895488599997
O 8.38746412912 7.210254453059999 3.3728518688599998
O 0.75087300672 5.851572916260001 3.40884117766
O 5.83732232672 5.826215836260001 3.3866034976599995
O 4.42893340816 2.8739084363000003 8.0745510389
O 9.515382728159999 2.8485513563000002 8.0523133589
O 4.28893211966 0.00313208535 8.39850026659
O 9.37538143966 -0.02222499465 8.37626258659
O 0.89364093234 8.723528018649999 3.7208511774099997
O 5.98009025234 8.69817093865 3.69861349741
O 3.4153359866199997 4.363567328109999 3.71792689255
O 8.501785306619999 4.338210248109999 3.69568921255
O 1.76723706538 4.36309277589 8.401424551449999
O 6.8536863853800005 4.33773569589 8.379186871449999
