80

Al 7.0142596275 2.3373253175 6.9875457725
In 2.3359986575 6.9943464275 7.007645742499999
Al 6.9920423575 7.0131645775 2.3279130974999998
Al 7.0038431325 7.0049298525 6.9956162625
In 2.3241978825 7.0025811525 2.3399425775
In 7.0024588525 2.3455600425 2.3198426075
Ga 2.3464151524999997 2.3267418925 6.9995752525
Al 2.3346143775 2.3349766174999997 2.3318720875
Al 7.0038593141600005 4.35784783912 4.65718064168
In 2.31379756916 9.02310367412 0.00957744668
Al 6.9906418958400005 5.0008767808800005 -0.00942493668
Al 4.6632180548 7.0043154638 4.35037560478
In 0.0175908498 2.3178927787999997 9.02203775978
Ga -0.0030215148 6.9926121162 4.99721271522
Ga 4.3577157182 4.6651161996 6.998413762139999
Al 9.0241759132 0.0163298146 2.31061062714
In 5.0029590618 -0.0010489896 6.988707262859999
Ga 2.33459819584 4.98205863088 4.67030770832
Al 7.00105839084 0.33327224588 -0.01749542668
Ga 2.32421406416 4.35549913912 0.00150695668
Al 4.6752394552 2.3355910062 4.97711274522
Al -0.0148222898 7.0008468412000004 0.32950955022
Al 0.0057900748 2.3261275038 4.35433459478
Al 4.9807417918 4.6747902704 2.32907458786
Al 0.3351145868 -0.0116324146 7.00073674286
Al 4.3563314382 0.0057463896 2.32264010714
Al 2.3450146908400002 0.31445409588 4.66223721832
Al 4.6634386802000005 2.3438257312 0.30940958022
Al 0.3128973168 4.6642068454 2.34110406786
Al 6.99344281916 9.02545237412 4.66525113168
Al 4.6750188298 6.9960807388 9.018078769779999
In 9.0255601932 4.6756996246 6.9863842821399995
O 5.79546406671 3.6523862341699997 6.11542112046
O 3.5489193151100005 8.31181446857 7.884322150899999
O 8.20640082689 5.701199917429999 1.4449813594999998
O 5.79535956629 5.684365554829999 7.87399624414
O 6.120523703450001 5.79527552205 3.64436860487
O 7.892433918649999 3.55056998805 8.30367485019
O 1.45240778895 8.20825611515 5.695713319609999
O 7.880778363949999 5.79566454975 5.6749641003299995
O 3.65122089901 6.121962329269999 5.78913335412
O 8.30948439989 7.891517727429999 3.53964085916
O 5.70295398811 1.45469011057 8.20302365664
O 5.68248448799 7.881596007729999 5.786923005079999
O 3.54299344329 5.687520235829999 3.2120672295399997
O 5.7895381948899995 1.0280920014299997 1.4431661991
O 1.13205668311 3.6387065525699995 7.8825069905
O 3.5430979437100003 3.6555409151699996 1.4534921058599999
O 3.2179338065499996 3.5446309479499996 5.68311974513
O 1.4460235913500001 5.7893364819499995 1.02381349981
O 7.88604972105 1.1316503548499997 3.63177503039
O 1.45767914605 3.5442419202499997 3.65252424967
O 5.68723661099 3.21794414073 3.53835499588
O 1.02897311011 1.44838874257 5.78784749084
O 3.63550352189 7.885216359429999 1.12446469336
O 3.6559730220100004 1.4583104622699998 3.54056534492
O 1.10540232171 8.31764206917 1.46781792546
O 8.21537951011 3.66302808357 3.1965190158999994
O 3.56077362189 1.01477723243 6.1166435145
O 1.1261308112900001 1.01441231983 3.2102520691399996
O 1.47489649845 1.10885283705 8.31603075987
O 3.2023721736499997 8.21582582305 3.65607165519
O 6.11886798395 3.55946973015 1.00791018461
O 3.2115496089499995 1.1257113147499997 1.01121992533
O 8.317681094009998 1.4731759442699999 1.1013302191199998
O 3.6638571948900003 3.2050950424299995 8.21130301416
O 1.0128922431099998 6.11994594557 3.55542046164
O 1.0132557329899998 3.2116427727299994 1.1231788300799999
O 8.233055188289999 1.02226440083 7.859670424539999
O 1.12307799989 5.6768783864299985 6.1309693341000004
O 5.777683888109999 8.32512923757 3.2108448354999997
O 8.21232669871 8.32549415017 6.11723628086
O 7.863561011549999 8.23105363295 1.01145759013
O 6.136085336350001 1.1240806469499998 5.6714166948099995
O 3.21958952605 5.780436739849999 8.31957816539
O 6.12690790105 8.21419515525 8.31626842467
O 1.02077641599 7.86673052573 8.22615813088
O 5.67460031511 6.134811427569999 1.11618533584
O 8.325565266889999 3.21996052443 5.77206788836
O 8.32520177701 6.1282636972699995 8.204309519919999
