80

Al -0.0326893 -0.051513905 6.088627145
Al -0.0980679 -0.154541715 18.265881435
Ga 4.842317195 2.8923661499999995 6.137963515
In 4.776938595 2.7893383399999996 18.315217805
Al 3.25447621 0.013230935 6.106372885
In 3.1890976099999997 -0.089796875 18.283627175
In 1.555151685 2.8276213099999996 6.120217775
Al 1.489773085 2.7245934999999997 18.297472065
Al 0.0 0.0 0.0
In -0.0653786 -0.10302781 12.17725429
Al 4.875006495 2.9438800549999997 0.04933637
In 4.809627895 2.8408522449999998 12.226590660000001
In 3.28716551 0.06474484 0.01774574
Al 3.22178691 -0.03828297 12.195000030000001
Al 1.587840985 2.879135215 0.03159063
In 1.5224623849999999 2.776107405 12.20884492
Ga -0.053502113882 1.8718951266469999 3.0594572313160002
Al -0.118880713882 1.768867316647 15.236711521316
Al -1.7528266388820002 4.686285501646999 3.0733021213160003
Al -1.8182052388820003 4.583257691647 15.250556411316001
In 3.2336633961179992 1.9366399666469998 3.0772029713160003
Ga 3.1682847961179994 1.8336121566469998 15.254457261316
Al 1.5343388711179993 4.751030341647 3.091047861316
In 1.4689602711179992 4.648002531647 15.268302151316
In 1.5759644988819999 0.904212278353 9.149387688684
In 1.510585898882 0.801184468353 21.326641978684002
Ga -0.123360026118 3.7186026533529994 9.163232578684001
In -0.188738626118 3.6155748433529995 21.340486868684
Al 4.863130008882 0.968957118353 9.167133428684
In 4.797751408882 0.865929308353 21.344387718684
Ga 3.163805483882 3.783347493353 9.180978318684
In 3.098426883882 3.680319683353 21.358232608684002
O -0.064217666422 1.855008868588 5.0553092094470005
O -0.129596266422 1.751981058588 17.232563499447
O -1.7635421914220002 4.669399243588 5.069154099447
O -1.8289207914220003 4.5663714335879995 17.246408389447
O 3.2229478435779995 1.9197537085879999 5.073054949447
O 3.1575692435779996 1.816725898588 17.250309239447
O 1.5236233185779993 4.734144083588 5.086899839447
O 1.4582447185779992 4.631116273588 17.264154129447
O 1.5866800514219999 0.921098536412 7.153535710552999
O 1.521301451422 0.818070726412 19.330790000553
O -0.112644473578 3.7354889114119993 7.167380600553
O -0.178023073578 3.6324611014119994 19.344634890553003
O 4.873845561422 0.985843376412 7.171281450553
O 4.808466961422 0.882815566412 19.348535740553
O 3.174521036422 3.8002337514119997 7.1851263405529995
O 3.1091424364219997 3.6972059414119998 19.362380630553
O 1.565248946342 0.887326020294 11.145239666815002
O 1.499870346342 0.7842982102939999 23.322493956815
O -0.134075578658 3.701716395293999 11.159084556815001
O -0.199454178658 3.598688585293999 23.336338846815
O 4.852414456342 0.952070860294 11.162985406815
O 4.787035856342 0.849043050294 23.340239696815
O 3.153089931342 3.7664612352939995 11.176830296815002
O 3.0877113313419997 3.6634334252939995 23.354084586815
O -0.042786561342 1.888781384706 1.063605253185
O -0.108165161342 1.785753574706 13.240859543185001
O -1.7421110863420002 4.703171759706 1.077450143185
O -1.8074896863420002 4.600143949705999 13.254704433185001
O 3.2443789486579995 1.953526224706 1.081350993185
O 3.1790003486579996 1.850498414706 13.258605283185002
O 1.5450544236579993 4.767916599706 1.095195883185
O 1.4796758236579992 4.664888789706 13.272450173185002
O -0.01634465 -0.0257569525 3.0443135725
O -0.08172325 -0.1287847625 15.2215678625
O 4.858661845 2.9181231024999996 3.0936499425
O 4.7932832450000005 2.8150952924999997 15.270904232500001
O 3.2708208599999997 0.0389878875 3.0620593125
O 3.20544226 -0.0640399225 15.239313602500001
O 1.571496335 2.8533782624999997 3.0759042025000003
O 1.506117735 2.7503504524999998 15.2531584925
O -0.04903395 -0.0772708575 9.1329407175
O -0.11441255 -0.1802986675 21.3101950075
O 4.825972545 2.8666091975 9.182277087500001
O 4.760593945 2.7635813875 21.3595313775
O 3.23813156 -0.0125260175 9.1506864575
O 3.17275296 -0.1155538275 21.3279407475
O 1.5388070349999998 2.8018643575 9.1645313475
O 1.473428435 2.6988365475 21.3417856375
