80

Al 6.854364852500001 2.2848681225 6.816090105
Al 2.2826361675 6.828139932500001 6.842774984999999
Ga 6.8239250275000005 6.852523327500001 2.268472035
Al 6.840396877500001 6.842370592500001 6.826001625
Al 2.2661643175000004 6.838292667500001 2.285245395
Ga 6.8378930025 2.2950208575 2.2585605149999997
Al 2.2966041425 2.2706374625 6.832863465
Al 2.2801322925000003 2.2807901975 2.275333875
Al 6.840094762300001 4.25878555704 4.54160708664
Al 2.2518942273 8.81221010204 0.01076237664
Ga 6.8217232677 4.888758627960001 -0.01457453664
Ga 4.5521605117 6.841022015980001 4.24571149788
Ga 0.0248396267 2.2591361509800003 8.81010292788
Ga -0.0033600267 6.825410584020001 4.88230888212
Al 4.258572781720001 4.55553634262 6.83057313348
Al 8.81382961672 0.02241726762 2.2463586634799997
Al 4.8923962132800005 -3.075762e-05 6.818380436519999
Al 2.2804344077 4.8643752329600005 4.559728413359999
Al 6.8356912427 0.33125615796 -0.02448605664
Al 2.2658622023 4.254707632040001 0.00085085664
Al 4.5683686583 2.28213877402 4.85562400212
Al -0.0198318767 6.835563319020001 0.32477929212
Al 0.0083677767 2.26928888598 4.25257333788
Ga 4.86195638828 4.56762444738 2.2707623665199996
Al 0.33463550328 -0.01426141762 6.835153796519999
Al 4.25606890672 0.00818660762 2.26313202348
Al 2.2944023827 0.30687276296 4.54981689336
Ga 4.5518968083 2.29229150902 0.29809441212
Ga 0.30419567828 4.55339378738 2.28753572652
Al 6.826126787300001 8.81628802704 4.551518606639999
Ga 4.568632361700001 6.830869280980001 8.803241087879998
Al 8.81633349172 4.56976700262 6.8137997734799995
O 5.66231139115 3.5682925616200003 5.96643066432
O 3.4668116909500006 8.11514688646 7.698024522959999
O 8.009785073249999 5.57291631674 1.40450034984
O 5.66241476965 5.55154621018 7.684383212879999
O 5.975342749220001 5.66203424995 3.5542717758599998
O 7.71223725418 3.46963105751 8.1007370529
O 1.41750041882 8.01327828189 5.5632820275
O 7.69624250278 5.6629583856500005 5.53504789374
O 3.56626798602 5.977982225360001 5.65122383832
O 8.110870249420001 7.710707126880001 3.45056300664
O 5.5759849925800005 1.42140490092 8.003914520159999
O 5.54819969698 7.69780772184 5.6476373848799994
O 3.4582177788500004 5.55486822838 3.1349048356799996
O 5.65371747905 1.00801390354 1.4033109770399999
O 1.11074409675 3.5502444732600003 7.696835150159999
O 3.4581144003500004 3.5716145798200007 1.41695228712
O 3.14518642078 3.46112654005 5.547063724139999
O 1.40829191582 5.65352973249 1.0005984471
O 7.70302875118 1.10988250811 3.5380534724999997
O 1.4242866672199999 3.4602024043500004 3.56628760626
O 5.5542611839800005 3.1451785646399997 3.45011166168
O 1.00965892058 1.41245366312 5.65077249336
O 3.5445441774199997 7.701755889080001 1.0974209798399999
O 3.57232947302 1.4253530681600002 3.45369811512
O 1.07411085615 8.12171710662 1.4355859543199998
O 8.022068525949999 3.5820278114600006 3.1138100529599995
O 3.4824641882500003 0.99103045174 5.96889177984
O 1.1021501846500001 0.98996581518 3.1337154628799997
O 1.44802186422 1.0801483849500002 8.118663205859999
O 3.12403671918 8.02305560251 3.5698923429
O 5.972757253820001 3.4801592068900002 0.9790675575
O 3.13597791778 1.10137799065 0.9843801437399999
O 8.12152482102 1.44486315036 1.06700936832
O 3.58354936442 3.1288212618799998 8.01495443664
O 0.98778445758 5.97482944592 3.4730698101599997
O 0.98793511198 3.13622732684 1.09696963488
O 8.04641831385 1.00144368338 7.665749545679999
O 1.09846064405 5.541132978539999 5.9875254470399994
O 5.63806498175 8.132130338260001 3.1324437201599995
O 8.01837898535 8.13319497482 5.96762003712
O 7.67250730578 8.043012405050002 0.9826722941399999
O 5.996492450820001 1.10010518749 5.531443157099999
O 3.14777191618 5.64300158311 8.122267942499999
O 5.984551252220001 8.021782799350001 8.11695535626
O 0.99900434898 7.67829763964 8.03432613168
O 5.536979805580001 5.99433952812 1.08638106336
O 8.132744712420001 3.1483313440799994 5.628265689839999
O 8.13259405802 5.986933463160001 8.004365865119999
