80

In -0.006119685 -0.035614 6.175371235
In -0.018359055 -0.106842 18.526113705
Ga 5.087885115000001 2.7986657700000004 6.197156115
In 5.075645745 2.7274377700000003 18.547898585
In 3.3586967050000003 -0.08886744 6.178527225
In 3.346457335 -0.16009544 18.529269695
In 1.723068725 2.85191921 6.194000125
In 1.7108293550000002 2.78069121 18.544742595
In 0.0 0.0 0.0
In -0.01223937 -0.071228 12.35074247
In 5.0940048 2.83427977 0.02178488
In 5.081765430000001 2.76305177 12.37252735
In 3.36481639 -0.05325344 0.00315599
In 3.35257702 -0.12448144 12.35389846
In 1.7291884100000001 2.88753321 0.01862889
In 1.71694904 2.81630521 12.36937136
Ga 0.028123848819 1.924772009338 3.0990517441070002
Ga 0.015884478819 1.853544009338 15.449794214107
Ga -1.6075041311809999 4.865558659338 3.114524644107
Ga -1.619743501181 4.794330659338001 15.465267114107
Ga 3.3929402388189995 1.871518569338 3.102207734107
Ga 3.3807008688189994 1.800290569338 15.452950204107001
Ga 1.7573122588189998 4.8123052193380005 3.1176806341070002
Ga 1.7450728888189997 4.741077219338001 15.468423104107
Ga 1.6888251911810002 0.8915332006619999 9.270319615893
Ga 1.676585821181 0.820305200662 21.621062085893
Ga 0.0531972111810004 3.8323198506619995 9.285792515893
Ga 0.0409578411810004 3.761091850662 21.636534985893
Ga 5.053641581181 0.8382797606619999 9.273475605893
Ga 5.0414022111809995 0.767051760662 21.624218075893
Ga 3.4180136011810003 3.7790664106619998 9.288948505893
Ga 3.4057742311810006 3.707838410662 21.639690975893
O 0.026117816076 1.913097740138 5.12333843494
O 0.013878446076 1.841869740138 17.47408090494
O -1.609510163924 4.853884390138001 5.13881133494
O -1.621749533924 4.782656390138 17.489553804939998
O 3.3909342060759995 1.859844300138 5.12649442494
O 3.3786948360759994 1.788616300138 17.47723689494
O 1.7553062260759997 4.800630950138001 5.1419673249399995
O 1.7430668560759996 4.729402950138001 17.492709794939998
O 1.6908312239240002 0.903207469862 7.24603292506
O 1.6785918539240001 0.831979469862 19.59677539506
O 0.0552032439240004 3.843994119862 7.2615058250599995
O 0.0429638739240004 3.7727661198619997 19.612248295060002
O 5.055647613924 0.849954029862 7.2491889150599995
O 5.043408243924 0.778726029862 19.59993138506
O 3.4200196339240003 3.790740679862 7.264661815059999
O 3.4077802639240002 3.719512679862 19.615404285060002
O 1.6868191584380001 0.879858931462 11.294606306726001
O 1.674579788438 0.8086309314619999 23.645348776726
O 0.0511911784380004 3.8206455814619997 11.310079206726
O 0.0389518084380004 3.7494175814619997 23.660821676726
O 5.051635548438 0.826605491462 11.297762296726
O 5.0393961784379995 0.755377491462 23.648504766726
O 3.4160075684380002 3.767392141462 11.313235196726001
O 3.4037681984380006 3.696164141462 23.663977666725998
O 0.030129881562 1.9364462785379999 1.074765053274
O 0.017890511562 1.865218278538 13.425507523274002
O -1.605498098438 4.8772329285380005 1.0902379532739999
O -1.617737468438 4.806004928538001 13.440980423274
O 3.3949462715619996 1.883192838538 1.077921043274
O 3.3827069015619995 1.811964838538 13.428663513274001
O 1.7593182915619996 4.823979488538001 1.0933939432739999
O 1.7470789215619997 4.752751488538001 13.444136413274
O -0.0030598425 -0.017807 3.0876856175
O -0.0152992125 -0.089035 15.4384280875
O 5.0909449575000005 2.8164727700000003 3.1094704975
O 5.0787055875 2.7452447700000002 15.4602129675
O 3.3617565475 -0.07106044 3.0908416075000003
O 3.3495171775 -0.14228844 15.4415840775
O 1.7261285675000002 2.86972621 3.1063145075
O 1.7138891975000001 2.79849821 15.4570569775
O -0.0091795275 -0.053421 9.2630568525
O -0.0214188975 -0.124649 21.6137993225
O 5.084825272500001 2.78085877 9.2848417325
O 5.0725859025 2.7096307700000004 21.6355842025
O 3.3556368625 -0.10667444 9.2662128425
O 3.3433974925000003 -0.17790244 21.6169553125
O 1.7200088825000002 2.83411221 9.2816857425
O 1.7077695125 2.76288421 21.6324282125
