80

In 1.69111427791 7.566118182459999 6.59459919165
Ga 6.87063537791 7.538014437459998 6.56769888165
Ga 3.5803545389499996 1.3087308197799998 1.8498073304500002
Ga 8.75987563895 1.2806270747799997 1.8229070204500002
In 1.00026792651 3.1168586768399993 1.8587423450900002
Ga 6.17978902651 3.088754931839999 1.8318420350900002
Ga 4.27120089035 5.7579903254 6.58566417701
Al 9.450721990349999 5.7298865804 6.558763867010001
Ga 0.95864641014 5.839038725885 -0.01952288993
Ga 6.13816751014 5.8109349808849995 -0.04642319993
Al 4.293405814859999 3.026384039115 4.720638974930001
Ga 9.472926914859999 2.9982802941149997 4.693738664930001
Ga 1.6948333613399997 1.4062280840949997 4.738201931050001
Ga 6.874354461339999 1.3781243390949998 4.7113016210500005
Ga 3.60649955366 7.483119140904999 9.463651303950002
In 8.78602065366 7.455015395904999 9.436750993950001
Ga 0.92082767751 0.2856260347799999 9.48604659537
Ga 6.10034877751 0.25752228978 9.45914628537
Ga 4.38040667611 8.603673341299999 4.696805165330001
Ga 9.55992777611 8.575569596299998 4.66990485533
Ga 1.76957418291 4.709836930600001 4.720090279530001
Ga 6.94909528291 4.681733185600001 4.693189969530001
Ga 3.53166017071 4.17946244548 9.46276148117
Ga 8.71118127071 4.151358700479999 9.43586117117
In 3.59427470899 1.3939830766549999 7.455144132440001
Al 8.77379580899 1.3658793316549998 7.428243822440001
In 1.68606463207 7.485172328385 2.69939507666
Ga 6.865585732069999 7.4570685833849994 2.67249476666
Al 4.26691749699 5.8191494998049995 2.69010242714
Ga 9.44643859699 5.791045754805 2.66320211714
Ga 1.0134218440699998 3.0600059052349997 7.464436781960001
Ga 6.1929429440699995 3.031902160235 7.437536471960001
O 4.36986957989 5.939833041495 8.44690430954
O 9.549390679890001 5.911729296495 8.42000399954
O 0.92091726745 2.9443943490649995 3.7217911753600004
O 6.100438367449999 2.916290604065 3.6948908653600006
O 3.50291951109 1.491529063205 3.7119620735200005
O 8.68244061109 1.4634253182049999 3.6850617635200007
O 1.78786733625 7.392698327354998 8.45673341138
O 6.967388436249999 7.364594582354998 8.429833101380002
O 2.75067714853 0.080228097735 5.961639834980001
O 7.930198248529999 0.052124352735 5.93473952498
O 2.5140894944899994 8.791367177944998 1.1906664347200002
O 7.69361059449 8.763263432944997 1.1637661247200002
O 5.08076668853 4.496401322485 1.1879900304800002
O 10.26028778853 4.468297577485 1.1610897204800001
O 0.18399995449 4.375193953195 5.96431623922
O 5.36352105449 4.347090208195 5.93741592922
O 0.12326145505 7.347526963044999 1.13070043764
O 5.302782555049999 7.3194232180449985 1.10380012764
O 5.140716696929999 1.5236855212749996 5.869594037660001
O 10.320237796930002 1.4955817762749997 5.84269372766
O 2.55833132705 2.905498292895 5.87960195694
O 7.73785242705 2.877394547895 5.852701646940001
O 2.7056468249299996 5.965714191425 1.12069251836
O 7.885167924929999 5.9376104464249995 1.09379220836
O 5.105924390719999 7.404053139139999 6.016659130080001
O 10.285445490719999 7.375949394139999 5.9897588200800005
O 0.15972930472 1.46797277682 1.3066604083200002
O 5.339250404719999 1.43986903182 1.2797600983200002
O 2.75763128732 2.96378683192 1.2894103827200003
O 7.937152387319999 2.9356830869199997 1.2625100727200003
O 2.5080224081199995 5.90823908404 6.033909155680001
O 7.687543508119999 5.88013533904 6.007008845680001
O 1.92062562724 1.520439058015 8.21412748939
O 7.100146727239999 1.4923353130149999 8.18722717939
O 3.36750006284 7.362496411704999 3.44152818941
O 8.54702116284 7.334392666704999 3.4146278794100002
O 0.77007698804 5.955497999404999 3.4585546932100004
O 5.949598088039999 5.927394254405 3.43165438321
O 4.51804870204 2.9274374703149997 8.197100985590001
O 9.697569802039999 2.8993337253149996 8.170200675590001
O 4.374480151379999 0.00691884746 8.528152423660002
O 9.554001251379999 -0.02118489754 8.501252113660001
O 0.9169966256200001 8.87764348554 3.7735533813400006
O 6.096517725619999 8.84953974054 3.7466530713400004
O 3.48290756718 4.4405726016 3.7712346119800007
O 8.662428667179999 4.412468856599999 3.7443343019800004
O 1.8085692098200001 4.443989731399999 8.53047119302
O 6.9880903098200005 4.415885986399999 8.503570883020002
