80

Al -0.054974115 -0.0428233425 5.978757025
In -0.164922345 -0.1284700275 17.936271075
Ga 4.61565054 2.8465891525 6.040876235
Al 4.50570231 2.7609424675 17.998390285
Al 3.1144502050000002 0.0535918125 6.008250285
Al 3.004501975 -0.0320548725 17.965764335
Ga 1.44622622 2.7501739974999997 6.011382975
Al 1.3362779900000001 2.6645273124999997 17.968897025
Al 0.0 0.0 0.0
Al -0.10994823 -0.085646685 11.95751405
Ga 4.670624655 2.889412495 0.06211921
Al 4.5606764250000005 2.8037658100000002 12.01963326
Al 3.16942432 0.096415155 0.02949326
In 3.05947609 0.01076847 11.987007310000001
In 1.501200335 2.79299734 0.03262595
Al 1.391252105 2.707350655 11.99014
Ga -0.0831560400450001 1.8082651844325 3.001296867212
Ga -0.1931042700450001 1.7226184994325 14.958810917212
In -1.7513800250450002 4.5048473694325 3.004429557212
Ga -1.8613282550450003 4.419200684432501 14.961943607212
In 3.086268279954999 1.9046803394324998 3.030790127212
Ga 2.9763200499549995 1.8190336544324999 14.988304177212001
Al 1.4180442949549994 4.6012625244325 3.0339228172120003
Al 1.3080960649549993 4.515615839432501 14.991436867212
In 1.4744081450450002 0.8990854705675 8.988843132788
Al 1.364459915045 0.8134387855674999 20.946357182788
Al -0.1938158399549997 3.5956676555675 8.991975822788
Ga -0.3037640699549997 3.5100209705675 20.949489872788
Al 4.6438324650450005 0.9955006255675 9.018336392788001
Al 4.533884235045001 0.9098539405674999 20.975850442788
Al 2.975608480045001 3.6920828105675 9.021469082788
Al 2.865660250045001 3.6064361255675 20.978983132788002
O -0.1011765549420001 1.7942276927610001 4.961133420007
O -0.2111247849420001 1.708581007761 16.918647470007
O -1.7694005399420003 4.490809877761 4.964266110007
O -1.8793487699420004 4.405163192761001 16.921780160007
O 3.068247765057999 1.890642847761 4.990626680007
O 2.9582995350579995 1.8049961627609998 16.948140730007
O 1.4000237800579993 4.587225032761 4.993759370007
O 1.2900755500579992 4.501578347761001 16.951273420007
O 1.4924286599420002 0.9131229622389999 7.029006579992999
O 1.3824804299420002 0.827476277239 18.986520629993002
O -0.1757953250579997 3.609705147239 7.032139269992999
O -0.2857435550579996 3.5240584622389997 18.989653319993
O 4.661852979942001 1.0095381172389999 7.058499839993
O 4.5519047499420004 0.9238914322389999 19.016013889993
O 2.993628994942001 3.706120302239 7.061632529993
O 2.883680764942001 3.6204736172389995 19.019146579993002
O 1.456387630148 0.885047978896 10.948679685583
O 1.3464394001480002 0.7994012938959999 22.906193735583
O -0.2118363548519997 3.581630163896 10.951812375583001
O -0.3217845848519996 3.495983478896 22.909326425583
O 4.625811950148001 0.9814631338959999 10.978172945583001
O 4.515863720148001 0.8958164488959999 22.935686995583
O 2.957587965148001 3.678045318896 10.981305635583
O 2.8476397351480007 3.592398633896 22.938819685583
O -0.0651355251480001 1.822302676104 1.041460314417
O -0.1750837551480001 1.736655991104 12.998974364417002
O -1.7333595101480004 4.5188848611040004 1.044593004417
O -1.8433077401480003 4.433238176104001 13.002107054417001
O 3.1042887948519993 1.9187178311039998 1.070953574417
O 2.994340564851999 1.833071146104 13.028467624417
O 1.4360648098519992 4.615300016104 1.074086264417
O 1.3261165798519994 4.529653331104001 13.031600314417002
O -0.0274870575 -0.02141167125 2.9893785125
O -0.1374352875 -0.10705835625 14.9468925625
O 4.6431375975 2.86800082375 3.0514977225
O 4.5331893675 2.78235413875 15.009011772500001
O 3.1419372625 0.07500348375 3.0188717725000003
O 3.0319890325000003 -0.01064320125 14.976385822500001
O 1.4737132775000001 2.77158566875 3.0220044625
O 1.3637650475 2.68593898375 14.9795185125
O -0.0824611725 -0.06423501375 8.9681355375
O -0.1924094025 -0.14988169875 20.9256495875
O 4.5881634825 2.8251774812500003 9.0302547475
O 4.4782152525 2.7395307962500004 20.9877687975
O 3.0869631475 0.03218014125 8.9976287975
O 2.9770149175 -0.05346654375 20.9551428475
O 1.4187391625 2.72876232625 9.0007614875
O 1.3087909325 2.64311564125 20.9582755375
