80

In 7.230217069999999 2.4059910225 7.2071405575
Ga 2.409771355 7.2103426475 7.225726937499999
Ga 7.21230672 7.2271861875 2.4028414125
In 7.2224122049999995 7.2186513675 7.2153038175
Ga 2.39966587 7.2188774675000005 2.4132645325
Ga 7.220111585 2.4145258425 2.3946781525
Ga 2.4175762200000004 2.3976823025 7.217563677499999
Ga 2.4074707350000004 2.4062171224999997 2.4051012725
Ga 7.22179262582 4.48932770154 4.80443588332
Ga 2.39124142582 9.302214146539999 0.01055985832
Ga 7.21062567918 5.15238432846 -0.00691631832
Ga 4.81035186452 7.21934478526 4.48703673146
Ga 0.01562136452 2.3898409002600003 9.301758996459998
Ga -0.00091463952 7.20987532974 5.15195473854
In 4.492734634700001 4.80760184204 7.217142519659999
Ga 9.303074864700001 0.01178503704 2.3860937346599997
Ga 5.1550586553 -0.00392851704 7.20756171534
Ga 2.40809031418 5.13554078846 4.81596920668
In 7.218430544179999 0.33972398346 -0.01507957832
Ga 2.3990462908200003 4.4895538015400005 0.00239659832
Ga 4.81953107548 2.40552370474 5.13336835854
In -0.01102012452 7.21841014974 0.33949233354
In 0.00551587952 2.3983757202600002 4.48929659146
Ga 5.137148305300001 4.81726664796 2.40326257034
Ga 0.3424178053 -0.01223723704 7.217984835339999
In 4.490434014700001 0.00347631704 2.3965168546599998
Ga 2.41589517918 0.3228804434600001 4.807805946679999
Ga 4.80942559048 2.41405852474 0.32090595354
Ga 0.3245074553 4.808957927960001 2.41368569034
In 7.21398776082 9.30198804654 4.81259914332
Ga 4.82045734952 7.210809965259999 9.29949913646
Ga 9.3053754847 4.81591056204 7.20671939966
O 5.974829645890001 3.7626055187500005 6.30740967588
O 3.6607568352500004 8.568068585830002 8.13006189776
O 8.463894481750001 5.873780783569999 1.49308642984
O 5.97522638711 5.857716336849999 8.12045472152
O 6.31240925187 5.971925639200001 3.75979290967
O 8.135814031670002 3.65643793232 8.56441785675
O 1.50011586353 8.462479117080001 5.87269453345
O 8.126368202930001 5.971328536400001 5.85410742513
O 3.7657759632200003 6.31012461488 5.97001269948
O 8.57063155118 8.1320903382 3.6526770108399997
O 5.877147091019999 1.4966487654 8.45978540976
O 5.861152744579999 8.12330750652 5.96853760492
O 3.6550532941100005 5.86226297125 3.3129954141199995
O 5.969126104750001 1.0567999041700002 1.49034319224
O 1.1659884582500002 3.7510877064300003 8.127318660159998
O 3.65465655289 3.7671521531500005 1.49995036848
O 3.3174736881299998 3.6529428507999997 5.8606121803299995
O 1.49406890833 5.9684305576800005 1.05598723325
O 8.129767076470001 1.16238937292 3.74771055655
O 1.50351473707 3.6535399535999997 3.76629766487
O 5.8641069767800005 3.31474387512 3.65039239052
O 1.0592513888200001 1.4927781518 5.96772807916
O 3.7527358489800005 8.128219724600001 1.16061968024
O 3.76873019542 1.50156098348 3.65186748508
O 1.1442784458900002 8.575491963750002 1.51353365088
O 8.47109706525 3.7722517808300005 3.2990131127599995
O 3.66916398175 1.0442768985700002 6.30780869484
O 1.16028491711 1.04528209185 3.3102521765199997
O 1.5176787518700001 1.1424217542 8.57451517467
O 3.30526283167 8.469324377320001 3.77054183175
O 6.31045609353 3.66666231208 1.04164574845
O 3.31142673293 1.1588942914 1.04390488013
O 8.57611619322 1.51430780988 1.13896391448
O 3.77590105118 3.3025864532 8.46739927584
O 1.0465958910200002 6.309535210400001 3.66590938476
O 1.04621127458 3.31087326152 1.15833505992
O 8.48560449411 1.04937652625 8.106871439119999
O 1.15878587475 5.85261670917 6.32139197724
O 5.96071895825 8.58059159143 3.3125963951599995
O 8.469598022889999 8.579586398150001 6.31015291348
O 8.11220418813 8.4824467358 1.0458899153299999
O 6.3246201083299995 1.1555441126800001 5.849863258249999
O 3.31942684647 5.95820617792 8.57875934155
O 6.31845620707 8.465974198600001 8.57650020987
O 1.05376674678 8.11056068012 8.481441175519999
O 5.85398188882 6.322282036800001 1.15300581416
O 8.58328704898 3.3153332796 5.954495705239999
O 8.58367166542 6.3139952284800005 8.46207003008
