40

Ga 3.2944031057013747 -0.018543382615648 2.968816790906629
Ga 6.498303114298626 -0.061303817384352 11.35467752909337
Ga -0.03016763375 -0.00807235125 1.80568141125
In -0.21117343625 -0.05650645875 12.63976987875
In 6.649141283048626 -0.020942061134352 2.326270472843371
Ga 3.1435649369513747 -0.058905138865648 11.99722384715663
Ga 10.792051311951376 1.4501653511343517 4.689687692156628
Ga 9.039262943048627 1.4311838138656479 9.52516409284337
Ga 4.022239298048625 1.438818008865648 9.58614257784337
Al 5.775027666951376 1.4577995461343518 4.750666177156628
Ga 6.558638479725688 -0.045159115682824 7.743314849828314
In 3.2340677402743125 -0.034688084317176 6.580179470171685
In -0.120670535 -0.032289405 7.222725645
In 5.017023645 -0.007634195 -0.060978485
Ga 2.510792195 1.48441528 -0.023832025
Ga 7.527815840000001 1.4767810849999998 -0.08481051
O 5.023179823625687 -0.023988318382824 3.573647090928314
O 4.769526396374313 -0.055858881617176 10.749847229071685
O 3.3257774472147856 -0.0101481366698599 1.0909079787521159
O 6.466928772785215 -0.0696990633301401 13.232586341247885
O 7.433540230485215 1.4010503505698597 3.5507683481478836
O 2.3635443047147855 1.37650861423014 10.785507829452115
O 7.380750379514786 1.4879330094301402 10.725061921852115
O 12.450746305285215 1.5124747457698597 3.490322440547884
O -0.06154197285 -0.01646759655 3.68359007895
O -0.17979909715 -0.04811121345 10.76186121105
O 8.27510293832569 -0.017895805482824 1.0788941412283144
O 1.5176032816743126 -0.061951394517176 13.244600178771684
O 10.886326821125689 1.525896085717176 1.0541088352283143
O 8.945169964014786 1.47451166933014 13.161275525952115
O 3.927963788874313 1.363087274282824 13.221721434771684
O 5.869120645985214 1.4144716906698598 1.114554744047884
O 8.287415197649999 -0.05060405145 8.34814514985
O 1.50529102235 -0.02924314855 5.9753491701499994
O 6.590012720898625 -0.036763869584352 5.865406038893371
O 3.202693499101375 -0.043083330415648 8.45808828110663
O 10.697775704849999 1.3744346173499997 8.32526640585
O 9.133356120350001 1.38785595745 5.889052801749999
O 4.11651490515 1.51454874265 5.950563864149999
O 5.68093448965 1.5011274025499999 8.38677746825
