40

Ga 0.9919830437099999 6.0980805376800005 -0.03049380501
Ga 4.50088093629 3.1769985573200006 4.907230145010001
In 1.77845730633 1.47954995348 4.930238619690001
Ga 3.7144066736700005 7.79552914152 -0.05350227969
In 3.7733550385 1.47550317551 7.757857023100001
In 1.75336653814 7.82263055487 2.79747137338
In 4.4649453978 6.08932473251 2.7883703736
Ga 1.06177617884 3.2088089978700007 7.766958022880001
In 1.76148283393 7.9133285634499995 6.85340440837
Ga 3.75462137791 1.3775754903300002 1.9211808345100003
In 1.0435114812900002 3.2592382608499997 1.9296804299700003
Ga 4.472592730550001 6.03166579293 6.84490481291
In 0.9727279468200001 0.31538546613 9.87658984818
In 4.57900342246 8.99977816913 4.8733779767800005
Ga 1.8490763838600002 4.92861839473 4.906008920580001
In 3.70265498542 4.38654524053 9.84395890438
O 4.577119103779999 6.22468997845 8.78263735238
O 0.9621073691800001 3.08195870437 3.8700107583400003
O 3.6743896734000003 1.5711883042500001 3.8600076520800006
O 1.8648367995600001 7.73546037857 8.792640458640001
O 2.8902476659000005 0.09962537157 6.205472788900001
O 2.61783453698 9.18581625989 1.2236620712600002
O 5.3207375804 4.70790689657 1.2256870514000002
O 0.18734462248 4.57753473489 6.203447808760001
O 5.34401406725 7.75117557196 6.24907591001
O 0.16512987211 1.53498902716 1.3581332655100002
O 2.8871431594100003 3.1026253013600003 1.3356510196100002
O 2.62200077995 6.18353929776 6.27155815591
O 0.11288767234 7.67280001829 1.16548726438
O 5.39425076478 1.61199897525 6.10535931546
O 2.68173397904 3.04859090129 6.11566312388
O 2.82540445808 6.23620809225 1.15518345596
O 2.01776011477 1.6048255030200003 8.54934459277
O 3.5182811487500003 7.6996542768200005 3.5690805718700003
O 0.79656096335 6.224741095220001 3.59118694007
O 4.739480300169999 3.0797386846199997 8.52723822457
O 4.59599122215 0.03094735866 8.87677181283
O 0.9440610458500002 9.27626363234 3.9143785431700007
O 3.6464951262300005 4.64999732086 3.9170049276300007
O 1.8935571417700001 4.65721367014 8.874145428370001
