40

Al -0.0733346662452115 3.329707056587128 13.660850037354868
Al 1.4485348780390417 2.509574539895453 2.389280634158235
Ga 2.8948729130390416 -0.0152699851045469 2.3934467491582354
Ga -1.4610526319609585 2.519617179895453 2.3704123791582354
Al 2.8821168432061706 1.6580779535174186 5.365181768486895
Ga -0.0257505444609586 -0.0091478538545469 4.155512329158236
Al -1.4848446492938294 4.189044609767419 7.123081233486896
Ga -0.0385066142938296 1.6642000847674185 7.127247348486895
Ga 1.4247428607061712 4.179001969767419 7.141949488486896
Ga -0.0181549287452115 3.349309600337128 4.756180862354868
Al -0.0512627712452115 3.337548074087128 10.098982367354868
Al 2.8600449482061707 1.6502369360174185 8.927049438486895
Al 4.293626826254789 0.7987404003371279 11.902950572354868
Al 2.847288791254789 3.3235849253371277 11.898784457354868
Ga 1.3840393162547884 0.8087830403371279 11.884082317354867
Ga -0.0588583869609586 -0.0209093801045469 9.498313834158235
O 4.301616415806171 0.8560096410174188 1.2407862696868959
O 2.913131902206171 3.279860385017419 1.2367867992868957
O 1.5084124062061706 0.8656505754174187 1.222672744886896
O -0.0804888440609586 -0.0285935772545469 12.988944150758234
O 0.0034755283547885 3.3569937974871276 1.2655505457548686
O 1.4405453756061704 2.452305248517419 13.051444937286895
O 2.8290298892061703 0.0284545045174189 13.055444407686895
O 4.23374938520617 2.442664314117419 13.069558462086896
O 1.3682368013547888 2.5354797615871276 5.974586868554868
O -0.0202477122452111 4.959330505587127 5.970587398154868
O -1.4249672082452116 2.5451206959871278 5.956473343754868
O 2.8935942286061707 1.6621552826174186 3.5130105800868954
O -0.0372279298609586 -0.0132251829545469 6.0076835175582355
O -1.4045466588452116 4.163139439087128 3.537774856154868
O -0.0160621452452116 1.739288695087128 3.5417743265548682
O 1.3886573507547888 4.153498504687128 3.5558883809548685
O -1.5651427268609583 4.214949831145453 10.708387610358235
O -0.0609511704609585 1.589111525145453 10.712720369958236
O 1.4608282835390423 4.204505485545453 10.728010595558235
O -0.0397853858452115 3.3416254031871278 8.246811178954868
O 2.8485675628061706 1.6461596069174185 10.779220626886895
O 4.3739249029390415 0.772835178645453 8.317644337958235
O 2.869733346539041 3.398673484645453 8.313311578358237
O 1.3479538925390415 0.783279524245453 8.298021352758235
