80

In 7.222229072500001 2.4044941025 7.2047371125
In 2.4062307725000003 7.2064053025 7.2198554325
In 7.207405792500001 7.2206755825 2.4026265175
Al 7.215370987500001 7.2135321375000006 7.2116653125
Al 2.3982655775 7.2135487475 2.4108166375
Ga 7.214263877500001 2.4116375475000003 2.3956983175
Al 2.4130888575 2.3973672675000004 7.2129272325
Al 2.4051236625 2.4045107125000005 2.4038884375
Al 7.21528378228 4.485570256120001 4.8032106974
Ga 2.39132028728 9.29462490112 0.0092902224
Ga 7.206385887720001 5.146742873880001 -0.0048858624
In 4.80627664924 7.214026196760001 4.484226336940001
Ga 0.01195971424 2.39071788176 9.29452705194
In -0.00178029924 7.20592785324 5.14644573306
Ga 4.48720838788 4.80496507772 7.212853200660001
Ga 9.29524149288 0.01019732272 2.38869608566
In 5.14810954212 -0.00310370772 7.204811144340001
In 2.40521086772 5.132472593880001 4.8123430526
Ga 7.213243972720001 0.33770483888 -0.0118140624
Ga 2.3981783722800003 4.48558686612 0.0023620224
In 4.81421800076 2.4040166532400002 5.13132741306
Ga -0.00974549424 7.213071298240001 0.3374069380600001
Al 0.00399451924 2.39786132676 4.48548825694
Ga 5.13328626212 4.81307777228 2.40270054934
In 0.3389693271200001 -0.01023054272 7.21300126434
In 4.4861012778800005 0.00307048772 2.39688620566
In 2.4120689527200003 0.32343455888 4.8054148526
Al 4.806252805760001 2.4111600982400003 0.32228861806
Al 0.3241460471200001 4.8059509372800004 2.41089066934
In 7.20842569728 9.29460829112 4.8101388974
Al 4.814241844240001 7.206882751760001 9.29326513194
Ga 9.296348602880002 4.812091912720001 7.2046630806600005
O 5.96842117997 3.7601328189300003 6.304721002640001
O 3.6561707050900005 8.56306403781 8.12377904716
O 8.45821877171 5.86772280139 1.4944440404400001
O 5.96842596823 5.85418746687 8.11594028476
O 6.307316719170001 5.966971396930001 3.75851386825
O 8.126810515810002 3.6541693850900003 8.56114764213
O 1.4980831249900002 8.45742979811 5.86704756687
O 8.11902626503 5.966536544870001 5.85217529775
O 3.76162668241 6.306173215090001 5.96589323036
O 8.564364963850002 8.124927204850001 3.65196949196
O 5.86941180255 1.4965278887500002 8.456094311440001
O 5.855833176189999 8.117478816310001 5.96492734124
O 3.6520734700300004 5.85791003107 3.3108327473599997
O 5.96432394491 1.0549788121900001 1.4917747028400001
O 1.1622758782899998 3.7503200486100003 8.12110970956
O 3.6520686817700003 3.7638553831300006 1.4996134652400002
O 3.3131779308299993 3.6510714530700006 5.8570398817500005
O 1.49368413419 5.963873464910001 1.05440610787
O 8.122411525010001 1.16061305189 3.7485061831300004
O 1.5014683849700001 3.6515063051300007 3.7633784522500004
O 5.858867967589999 3.3118696349100003 3.6496605196400003
O 1.05612968615 1.49311564515 5.96358425804
O 3.75108284745 8.121514961250002 1.15945943856
O 3.7646614738100004 1.5005640336900001 3.65062640876
O 1.1444576849699999 8.56918746393 1.51080052764
O 8.46420381009 3.76829628281 3.29962193216
O 3.66390183671 1.0444144863900002 6.304744755440001
O 1.1581786432299999 1.0451660418700002 3.3081634097599997
O 1.51299978417 1.14366308193 8.568814583250001
O 3.30284702081 8.46322403009 3.76722716713
O 6.306116229990001 3.6626620431100005 1.04289045187
O 3.30877894003 1.15751511987 1.04439842275
O 8.56965978741 1.5114054600900002 1.14173611536
O 3.7700480288500002 3.30161888985 8.46227020696
O 1.04544830755 6.305582533750001 3.66217383644
O 1.04558585119 3.30845739131 1.15715046624
O 8.476036965030001 1.0488553860700003 8.10475322236
O 1.15629083991 5.84974656719 6.31593181784
O 5.95659281329 8.57362836361 3.31080899456
O 8.462316006770001 8.572876808130001 6.3073903402400004
O 8.10749486583 8.474379768070001 1.0467391667500001
O 6.317647629190001 1.1548188199099998 5.84832658287
O 3.3143784200099997 5.955380806890001 8.572663298130001
O 6.3117157099700005 8.46052773013 8.57115532725
O 1.0508348625900001 8.106637389910002 8.47381763464
O 5.85044662115 6.316423960150002 1.15328354304
O 8.575046342450001 3.31246031625 5.95337991356
O 8.57490879881 6.309585458690001 8.458403283760001
