80

In 7.270303745 2.4192056925 7.2504727925
Ga 2.4231004049999996 7.2522576775 7.2671943725
Ga 7.254651904999999 7.2675453425 2.4178988775
In 7.2634525949999995 7.2595751625 7.2580997325
Ga 2.414299715 7.2602278575 2.4269935175
In 7.2615030549999995 2.4271758725 2.4102719375
Ga 2.4299515549999997 2.4118882074999997 7.2595674325
In 2.421150865 2.4198583874999997 2.4193665775
In 7.2629437031999995 4.514230393539999 4.83366720308
Ga 2.4069396732 9.35525255854 0.01018792808
Ga 7.253211256799999 5.180490821459999 -0.00549638808
Ga 4.838277708080001 7.2604434822399995 4.51341296686
Ga 0.01357735808 2.40478634724 9.355081521859999
In -0.00087758808 7.25204205276 5.18077492314
Ga 4.51755812608 4.83523409602 7.25945201802
Ga 9.35596077608 0.01015229102 2.40252958302
Ga 5.18269717392 -0.00414019602 7.25058820698
In 2.4216597568 5.16520315646 4.84379910692
Ga 7.2600624067999995 0.34012135146 -0.01312332808
Ga 2.4137908232 4.5148830885399995 0.00256098808
Ga 4.84632575192 2.4189900677600003 5.16405334314
Ga -0.00967827808 7.26001223276 0.34057406814
In 0.00477666808 2.41275652724 4.51488066686
Ga 5.16704533392 4.84419945398 2.41801429198
Ga 0.34234498392 -0.01145768102 7.25968284698
Ga 4.51560858608 0.00283480602 2.41162422302
Ga 2.4285109068 0.32483368646 4.83617216692
Ga 4.83752506192 2.42696024776 0.32385248814
In 0.32669314392 4.83688196898 2.42710893198
Ga 7.256092553199999 9.35459986354 4.84129414308
Ga 4.84707839808 7.252473302239999 9.35361382186
In 9.35791031608 4.84255158102 7.25035737802
O 6.00822562158 3.7837857307799996 6.34503043524
O 3.6813144798199997 8.617646020299999 8.17693832392
O 8.51342096898 5.905962091899999 1.50342571328
O 6.00854757962 5.89119003202 8.16827130256
O 6.34892878686 6.005426002359999 3.78256230653
O 8.180990452299998 3.6768298511199995 8.61568264569
O 1.5088510997 8.511625643279999 5.90595052811
O 8.17273831114 6.004702378239999 5.88947029467
O 3.78707955938 6.34640399471 6.004743597
O 8.62063138578 8.17752608683 3.67522027604
O 5.908900623019999 1.5050804545699998 8.51005583856
O 5.89489708182 8.169573338889998 6.0036460634
O 3.67637783842 5.89564781922 3.33243587476
O 6.00328898018 1.0617875297 1.50052798608
O 1.17118249102 3.7734714581 8.17404059672
O 3.67605588038 3.78824351798 1.50919500744
O 3.3356746731399993 3.6740075476399996 5.89490400347
O 1.5036130077 6.00260369888 1.06178366431
O 8.175752360299999 1.16780790672 3.7715157818900003
O 1.5118651488600001 3.6747311717599995 3.78799601533
O 5.89752390062 3.3330295552899996 3.672722713
O 1.0639720742199998 1.5019074631699998 6.00224603396
O 3.77570283698 8.17435309543 1.16741047144
O 3.78970637818 1.5098602111099997 3.6738202466
O 1.1522215915799998 8.62480789578 1.52155116024
O 8.51971712982 3.7925642152999997 3.3200158889199995
O 3.68872061898 1.0503049569 6.3450942682800004
O 1.1662458496199999 1.0514732570199998 3.3295381475599997
O 1.52422843686 1.14976886736 8.62423086153
O 3.3249864223 8.517852016119999 3.7922033706900002
O 6.3472537497 3.68654383828 1.04902809311
O 3.33043658114 1.16498560324 1.05073713967
O 8.625482209380001 1.5213221897099998 1.1478211619999998
O 3.7959310357800002 3.3218689518299995 8.51688883104
O 1.0528965930199998 6.34610261957 3.68657656356
O 1.05259535182 3.32985656389 1.1649129084
O 8.53238186842 1.0546256542199999 8.15591514976
O 1.1648863301799999 5.886869334699999 6.35745042108
O 5.99588284102 8.629128593099999 3.33237204172
O 8.51835761038 8.627960292980001 6.347928162440001
O 8.160375023139999 8.529664682639998 1.05323544847
O 6.3596170377 1.16158153388 5.8852629393099996
O 3.3373497102999994 5.992889711719999 8.62843821689
O 6.35416687886 8.514447946759999 8.62672917033
O 1.05912125062 8.158111360289999 8.529645148
O 5.88867242422 6.35756459817 1.1605774789599999
O 8.631706866980002 3.33333093043 5.99088974644
O 8.63200810818 6.34957698611 8.5125534016
