40

In 0.9880707114799999 6.063205097010001 -0.02905823923
In 4.4731603035199985 3.1563171379900004 4.8818276992300005
In 1.7674291104 1.46953316059 4.90421328503
In 3.6938019046 7.749989074409999 -0.05144382503
Ga 3.74944579491 1.46418163058 7.716793845020001
In 1.74512552219 7.77715678888 2.78413777322
Ga 4.438722498709999 6.052593084280001 2.7749019689199996
Ga 1.0558488183899999 3.18874533518 7.72602964932
Ga 1.75300420385 7.866556666609999 6.8183500726299995
Ga 3.7311119662499994 1.36794044065 1.91138086881
Ga 1.0380397126099998 3.24002188285 1.9200480339100001
Ga 4.44607645749 5.99447522441 6.809682907529999
In 0.96610807293 0.3113159190299999 9.82377322278
Ga 4.553090923769998 8.946137591389999 4.8493199897
In 1.8389641645700001 4.8990698123900005 4.8808038027
In 3.68023483213 4.35838369803 9.79228940978
O 4.549906548409998 6.18599304508 8.7370740735
O 0.95697860849 3.06340291986 3.84993834186
O 3.65136266933 1.5601158216600002 3.83984957876
O 1.85552248757 7.68928014328 8.7471628366
O 2.8715118109700004 0.09673180756 6.17240395874
O 2.6047049147299997 9.13259630826 1.21908647134
O 5.28859451797 4.678954458060001 1.22037049224
O 0.18762220773 4.55037365776 6.17111993784
O 5.31265239772 7.704032092299999 6.21744145979
O 0.16460984268 1.52598015474 1.35116903797
O 2.8698819032799996 3.0836861117400005 1.3292810114700002
O 2.60738033712 6.146326135300001 6.23932948629
O 0.11514070241 7.62913184414 1.1607735292599999
O 5.360146676889999 1.5995881550399997 6.07327684066
O 2.6655002546099995 3.0291163844400004 6.08364992336
O 2.80978712469 6.19960361474 1.15040044656
O 2.0050572018599997 1.5933085315300002 8.50396048299
O 3.49869141094 7.65403503975 3.55169172933
O 0.7937473021400001 6.188527668750001 3.57322435633
O 4.71000131066 3.05881590253 8.48242785599
O 4.56620171354 0.02725817124 8.82947293913
O 0.9414966214600001 9.22266989576 3.8952995288700003
O 3.62486150182 4.6215103079599995 3.8971521889700003
O 1.88283683318 4.62841775904 8.82762027903
