80

Al -0.0574677875 -0.0323012525 5.9503711725
Ga -0.1724033625 -0.0969037575 17.8511135175
Al 4.5813116124999995 2.7875470125 6.0094441225
Al 4.4663760375 2.7229445075000003 17.910186467499997
Ga 3.0759707475 0.0384801525 5.9809668075
Al 2.9610351725 -0.0261223525 17.881709152499997
Ga 1.4478730774999997 2.7167656075 5.9788484875
Al 1.3329375024999996 2.6521631025000003 17.8795908325
Ga 0.0 0.0 0.0
Al -0.114935575 -0.064602505 11.900742345
Ga 4.6387794 2.819848265 0.05907295
Al 4.523843825 2.75524576 11.959815294999999
In 3.133438535 0.070781405 0.030595635
Ga 3.0185029599999997 0.0061789 11.931337979999999
Al 1.5053408649999998 2.74906686 0.028477315
Ga 1.3904052899999997 2.6844643550000002 11.92921966
Al -0.0696487368565001 1.7927859003395001 2.9839710392835
Ga -0.1845843118565001 1.7281833953395 14.884713384283499
Al -1.6977464068565005 4.4710713553395 2.9818527192835
Al -1.8126819818565005 4.4064688503395 14.8825950642835
Ga 3.0637897981434996 1.8635673053395 3.0145666742835
Al 2.9488542231434995 1.7989648003395 14.9153090192835
In 1.4356921281434996 4.541852760339501 3.0124483542835
Al 1.3207565531434995 4.477250255339501 14.913190699283499
Al 1.4600540268564999 0.8916784546604999 8.9452486207165
Ga 1.3451184518564998 0.8270759496604999 20.8459909657165
Al -0.1680436431435002 3.5699639096605003 8.943130300716499
Al -0.2829792181435002 3.5053614046605 20.8438726457165
Ga 4.5934925618564995 0.9624598596605 8.975844255716499
Ga 4.4785569868565 0.8978573546605 20.8765866007165
Ga 2.9653948918564996 3.6407453146605 8.9737259357165
Ga 2.8504593168564996 3.5761428096605 20.8744682807165
O -0.0884866775990001 1.78219754977 4.934502709628999
O -0.203422252599 1.7175950447700001 16.835245054629
O -1.7165843475990006 4.46048300477 4.932384389629
O -1.8315199225990006 4.3958804997700005 16.833126734628998
O 3.0449518574009997 1.85297895477 4.965098344628999
O 2.9300162824009996 1.78837644977 16.865840689629
O 1.4168541874009994 4.531264409770001 4.962980024628999
O 1.3019186124009994 4.466661904770001 16.863722369629
O 1.4788919675989998 0.9022668052299999 6.994716950370999
O 1.3639563925989997 0.8376643002299999 18.895459295371
O -0.1492057024010002 3.58055226023 6.992598630370999
O -0.2641412774010002 3.5159497552300003 18.893340975371
O 4.612330502599 0.97304821023 7.025312585370999
O 4.497394927599 0.90844570523 18.926054930371
O 2.9842328325989995 3.65133366523 7.023194265370999
O 2.8692972575989995 3.5867311602300003 18.923936610371
O 1.4412160861139998 0.8810901040909999 10.895780291062
O 1.326280511114 0.8164875990909999 22.796522636061997
O -0.1868815838860002 3.5593755590910003 10.893661971062
O -0.3018171588860002 3.494773054091 22.794404316062
O 4.574654621114 0.9518715090909999 10.926375926062
O 4.4597190461139995 0.887269004091 22.827118271061998
O 2.9465569511139997 3.6301569640910003 10.924257606062
O 2.8316213761139997 3.565554459091 22.824999951061997
O -0.0508107961140001 1.803374250909 1.033439368938
O -0.1657463711140001 1.7387717459090002 12.934181713938
O -1.6789084661140006 4.481659705909 1.0313210489379998
O -1.7938440411140006 4.417057200909 12.932063393938
O 3.082627738886 1.874155655909 1.064035003938
O 2.967692163886 1.8095531509090002 12.964777348938
O 1.4545300688859994 4.552441110909001 1.0619166839379999
O 1.3395944938859994 4.487838605909001 12.962659028938
O -0.02873389375 -0.01615062625 2.97518558625
O -0.14366946875 -0.08075313125 14.875927931249999
O 4.61004550625 2.80369763875 3.03425853625
O 4.49510993125 2.7390951337500002 14.93500088125
O 3.1047046412499997 0.05463077875 3.00578122125
O 2.9897690662499996 -0.00997172625 14.90652356625
O 1.4766069712499998 2.73291623375 3.00366290125
O 1.3616713962499998 2.6683137287500003 14.904405246249999
O -0.08620168125 -0.04845187875 8.92555675875
O -0.20113725625 -0.11305438375 20.82629910375
O 4.552577718749999 2.77139638625 8.984629708749999
O 4.43764214375 2.70679388125 20.88537205375
O 3.04723685375 0.02232952625 8.95615239375
O 2.93230127875 -0.04227297875 20.85689473875
O 1.4191391837499998 2.70061498125 8.95403407375
O 1.3042036087499997 2.63601247625 20.85477641875
