40

Al 2.9682527911397747 -0.0897094549385904 2.743116470226554
Al 5.390213518860224 -0.2135791050614096 10.915866599773446
Al -0.18209729875 -0.01138673375 1.8098779775
In -1.27468109125 -0.07970713625 12.6691458425
In 6.300700012610224 -0.1566454363114096 1.8664767122734462
In 2.0577662973897746 -0.1466431236885904 11.792506357726554
Al 10.181437632389777 1.2594079263114093 3.9507537327265534
In 8.059970607610225 1.2644090886885904 8.913768282273447
Al 3.1523482576102237 1.3705064336885904 9.323788657273445
Al 5.273815282389775 1.3655052713114095 4.360774107726553
Al 5.754408199944887 -0.1908056405942952 7.296110781363277
Al 2.604058110055112 -0.1124829194057048 6.362872288636723
In -0.728389195 -0.045546935 7.23951191
Al 4.90762235 -0.106097345 -0.410020375
Al 2.48765979 1.46660146 -0.19222034
Al 7.395282139999999 1.360504115 -0.602240715
O 4.606434781044888 -0.1304372678942952 3.228400393563277
O 3.7520315289551114 -0.1728512921057048 10.430582676436723
O 3.157633996407559 -0.0778672509276517 0.8608432288363157
O 5.20083231359244 -0.2254213090723483 12.798139841163685
O 6.99458808129244 1.2775001358276517 3.043868875363684
O 1.428867569507559 1.3369395585723483 10.639670701836316
O 6.339197808707558 1.3524142241723482 10.230673514636315
O 11.90491832049244 1.2929748014276516 2.6348716881636842
O -0.37147848945 -0.02322893685 3.6921510741
O -1.08529990055 -0.06786493315 10.7868727459
O 7.994965411344887 -0.1828536107942952 0.5045533041632768
O 0.3635008986551123 -0.1204349492057048 13.154429765836722
O 10.582131592944888 1.3424119076057048 0.3046441505632768
O 7.661984634407559 1.3029771158723482 12.560901044036315
O 2.7516542970551114 1.287502452394295 12.969898239436722
O 5.67180125559244 1.3269372441276517 0.7136413459636843
O 7.392590189849999 -0.23153345355 7.781394704699999
O 0.9658761201499999 -0.07175510645 5.877588365299999
O 5.943789307060224 -0.1789634344614096 5.413837548173446
O 2.414677002939775 -0.1243251255385904 8.245145521826554
O 9.78074358825 1.17640394805 7.5968631783
O 8.45795676255 1.2258410563499997 5.2666356488999995
O 3.55304230175 1.4535104119499997 5.6776792117
O 4.87582912745 1.40407330365 8.0079067411
