80

Al -0.084037405 -0.0482011575 5.8636270825
Al -0.252112215 -0.1446034725 17.5908812475
Al 4.335743685 2.8812473925 5.9502515275
Al 4.1676688749999995 2.7848450775 17.6775056925
Al 2.97175025 0.1405785275 5.9088124725
Ga 2.80367544 0.0441762125 17.6360666375
Al 1.2799560300000001 2.6924677075 5.9050661374999995
Al 1.1118812200000001 2.5960653925 17.6323203025
Al 0.0 0.0 0.0
Al -0.16807481 -0.096402315 11.727254165
Al 4.41978109 2.92944855 0.086624445
Al 4.25170628 2.833046235 11.81387861
Al 3.055787655 0.188779685 0.04518539
Al 2.8877128450000003 0.09237737 11.772439555
Al 1.363993435 2.740668865 0.041439055
Ga 1.195918625 2.6442665499999998 11.76869322
Al -0.1512747041405 1.7399090176485 2.944376524826
In -0.3193495141404999 1.6435067026485 14.671630689826
Al -1.8430689241405003 4.2917981976485 2.940630189826
Al -2.0111437341405 4.1953958826485 14.667884354826
Al 2.9045129508594996 1.9286887026485 2.989561914826
Al 2.7364381408594998 1.8322863876485 14.716816079826
Al 1.2127187308594993 4.4805778826485 2.9858155798259998
Al 1.0446439208594993 4.3841755676485 14.713069744825999
Al 1.3471933291405 0.9043575323514998 8.824316695174
Al 1.1791185191405 0.8079552173514999 20.551570860174
Al -0.3446008908595 3.4562467123514993 8.820570360173999
Al -0.5126757008595 3.359844397351499 20.547824525174
Al 4.4029809841405 1.0931372173515 8.869502085174
Al 4.2349061741405 0.9967349023515 20.596756250174
Al 2.7111867641405 3.6450263973514994 8.865755750174
Al 2.5431119541405 3.548624082351499 20.593009915174
O -0.1788221654995 1.72410867822 4.8664734824695
O -0.3468969754994999 1.62770636322 16.5937276474695
O -1.8706163854995002 4.27599785822 4.8627271474695
O -2.0386911954995 4.17959554322 16.589981312469497
O 2.8769654895004995 1.91288836322 4.911658872469499
O 2.7088906795004997 1.81648604822 16.6389130374695
O 1.1851712695004994 4.46477754322 4.9079125374695
O 1.0170964595004994 4.36837522822 16.635166702469498
O 1.3747407904995 0.9201578717799999 6.902219737530499
O 1.2066659804995 0.8237555567799999 18.6294739025305
O -0.3170534295005 3.4720470517799993 6.8984734025305
O -0.4851282395005 3.375644736779999 18.6257275675305
O 4.4305284454995 1.10893755678 6.947405127530499
O 4.2624536354995 1.01253524178 18.6746592925305
O 2.7387342254995 3.6608267367799994 6.943658792530499
O 2.5706594154995 3.564424421779999 18.6709129575305
O 1.3196458677815 0.8885571929229998 10.7464136528175
O 1.1515710577815 0.7921548779229999 22.4736678178175
O -0.3721483522185 3.4404463729229993 10.742667317817501
O -0.5402231622185 3.344044057922999 22.469921482817497
O 4.3754335227815 1.077336877923 10.7915990428175
O 4.207358712781501 0.980934562923 22.5188532078175
O 2.6836393027815 3.6292260579229993 10.7878527078175
O 2.5155644927815 3.532823742922999 22.515106872817498
O -0.1237272427815 1.755709357077 1.0222795671825
O -0.2918020527815 1.6593070420769997 12.7495337321825
O -1.8155214627815002 4.307598537077 1.0185332321825
O -1.9835962727815002 4.211196222077 12.7457873971825
O 2.9320604122184997 1.944489042077 1.0674649571825
O 2.7639856022184994 1.8480867270769998 12.794719122182501
O 1.2402661922184994 4.496378222077 1.0637186221825
O 1.0721913822184994 4.399975907077 12.7909727871825
O -0.0420187025 -0.02410057875 2.93181354125
O -0.2100935125 -0.12050289375 14.65906770625
O 4.3777623875 2.90534797125 3.01843798625
O 4.2096875774999996 2.80894565625 14.74569215125
O 3.0137689525 0.16467910625 2.97699893125
O 2.8456941425 0.06827679125 14.70425309625
O 1.3219747325 2.71656828625 2.97325259625
O 1.1538999225 2.62016597125 14.700506761249999
O -0.1260561075 -0.07230173625 8.79544062375
O -0.2941309175 -0.16870405125 20.522694788749998
O 4.2937249825 2.85714681375 8.88206506875
O 4.125650172499999 2.76074449875 20.60931923375
O 2.9297315475 0.11647794875 8.84062601375
O 2.7616567375 0.02007563375 20.56788017875
O 1.2379373275 2.66836712875 8.83687967875
O 1.0698625175 2.5719648137499997 20.56413384375
