40

Al -0.0727257707869551 3.2468072136457513 13.413459062034416
Al 1.4092644180980554 2.4623133215149204 2.346271614952348
Al 2.8379177380980556 -0.0034373784850795 2.345853899952348
Al -1.4404172169019447 2.4581633915149204 2.331368499952348
Al 2.8206712276889 1.6322955798393282 5.2647884580132365
Al -0.0205868194019446 -0.0132777897350795 4.079163838702349
Al -1.4664866498111 4.088205868589328 6.998516111763236
Al -0.0378333298111002 1.622455168589328 6.998098396763236
Al 1.3831949851889 4.0923557985893275 7.0134192267632365
Al -0.0286111582869551 3.2752596198957513 4.6723937932844155
Al -0.0550799257869551 3.2581881761457514 9.917032954534415
Al 2.8030253826889 1.620914617339328 8.761214565513237
Al 4.214432106713044 0.7908969248957513 11.679731408284416
Ga 2.7857787867130446 3.256647624895751 11.680149123284416
Al 1.364750471713045 0.7867469948957513 11.664828293284415
Al -0.0470555869019446 -0.0303492334850795 9.323802999952349
O 4.2102075934889 0.8577852499393283 1.2135695013132362
O 2.8387004062889 3.2249059219393286 1.2139705077132361
O 1.4745132238888996 0.8538013171393283 1.199262510913236
O -0.0643485150019446 -0.0415025767350795 12.750300585302348
O -0.0113182301869551 3.2864129631457515 1.245896207934416
O 1.4134890168888996 2.395424947239328 12.812433522213237
O 2.7849962040888996 0.0283042752393282 12.812032515813236
O 4.149183386488899 2.3994088800393283 12.826740512613236
O 1.3344564400130452 2.4836778462457514 5.865813997834416
O -0.0370507471869546 4.850798518245751 5.866215004234416
O -1.401237929586955 2.4796939134457516 5.851507007434416
O 2.8298470670889 1.6382136803393281 3.446646882113236
O -0.0297626588019446 -0.0191958902350795 5.897305414602348
O -1.391678756586955 4.066841393545751 3.4789735887344158
O -0.020171569386955 1.6997207215457515 3.478572582334416
O 1.344015613013045 4.0708253263457514 3.493280579134416
O -1.5412946286019442 4.109570392864921 10.518058634502347
O -0.0554951758019445 1.5451896648649206 10.517624210902348
O 1.422374271798056 4.113886320064921 10.533557874102348
O -0.0459040863869551 3.264106276645751 8.098891378634416
O 2.7938495432889 1.614996516839328 10.579356141413236
O 4.289240084798055 0.7695324001649206 8.16018902540235
O 2.803440631998055 3.333913128164921 8.16062344900235
O 1.3255711843980555 0.7652164729649206 8.144689785802349
