80

Al 1.72291428778 7.79275822925 6.7662351474
In 7.07393673778 7.779802759250001 6.7389883524
In 3.6945914647599998 1.35877007831 1.8990150510000001
In 9.04561391476 1.3458146083100002 1.8717682560000002
Al 1.0235022439800001 3.2103155325299997 1.9061273299800001
In 6.37452469398 3.19736006253 1.8788805349800002
In 4.39400350856 5.94121277503 6.7591228684199995
In 9.745025958560001 5.92825730503 6.73187607342
In 0.97223736893 6.007852056250001 -0.026086661385
In 6.323259818930001 5.99489658625 -0.053333456385
In 4.42561589607 3.130240953750001 4.846209656385
In 9.776638346070001 3.117285483750001 4.818962861385
In 1.7460767068300003 1.4560629445100002 4.8657639737250005
In 7.097099156830001 1.44310747451 4.838517178725
Ga 3.7016559681700003 7.7161298054900005 9.713565121275
In 9.052678418170002 7.703174335490001 9.686318326275
Ga 0.9494580354900001 0.3059090796000001 9.74390243454
In 6.30048048549 0.2929536096000001 9.71665563954
Al 4.49817488069 8.86621547092 4.81590824826
In 9.849197330690002 8.85326000092 4.7886614532600005
Al 1.8130315672900004 4.85373381752 4.84371428016
Al 7.164054017290001 4.840778347520001 4.8164674851600005
In 3.6346013488900004 4.318390733 9.71609640264
Al 8.98562379889 4.305435263 9.68884960764
Al 3.7081423781900007 1.4519997802 7.656770524305
Ga 9.059164828190001 1.4390443102000001 7.629523729305
Al 1.71834166815 7.705666480560001 2.765136772095
Ga 7.069364118150001 7.69271101056 2.737889977095
Ga 4.389781146690001 6.000265004100002 2.757508760955
Al 9.740803596689998 5.987309534100001 2.730261965955
Ga 1.03670289965 3.1574012566600005 7.664398535445001
In 6.38772534965 3.1444457866600004 7.637151740445001
O 4.49518507677 6.130356053280001 8.670819403305
O 9.846207526770002 6.117400583280001 8.643572608305
O 0.9418734044900001 3.0345393523600004 3.820039586295
O 6.29289585449 3.0215838823600003 3.792792791295
O 3.6138382696700004 1.54835384254 3.811637976915
O 8.964860719670002 1.53539837254 3.7843911819150002
O 1.8232202115900003 7.616541563099999 8.679221012685
O 7.17424266159 7.6035860931 8.651974217685
O 2.84085795513 0.0968531022 6.123945970185
O 8.191880405130002 0.0838976322 6.096699175185
O 2.56986419765 9.050037640720001 1.2140521986150001
O 7.920886647650001 9.03708217072 1.186805403615
O 5.23482390763 4.6409725757 1.215965232435
O 10.585846357630002 4.628017105700001 1.188718437435
O 0.17589824515 4.50591816722 6.122032936365
O 5.52692069515 4.49296269722 6.094786141365
O 0.10440469333 7.55774858696 1.1537983301549999
O 5.45542714333 7.54479311696 1.126551535155
O 5.3055193888900005 1.5885965601200003 6.028052541045
O 10.65654183889 1.5756410901200002 6.000805746045
O 2.63337939483 3.0017100810600006 6.036712016505
O 7.984401844830002 2.9887546110600005 6.009465221505
O 2.77654468739 6.14463506602 1.1451388546949999
O 8.12756713739 6.131679596020001 1.117892059695
O 5.25129596183 7.63605175663 6.17297483496
O 10.60231841183 7.62309628663 6.14572803996
O 0.16032402033 1.5114527816100003 1.34068904364
O 5.5113464703299995 1.4984973116100002 1.3134422486400001
O 2.8395567340300008 3.0577548103100005 1.3215859919400001
O 8.190579184030002 3.0447993403100004 1.2943391969400002
O 2.57206324813 6.089749727930001 6.19207788666
O 7.92308569813 6.0767942579300005 6.16483109166
O 1.9786361622100002 1.5776332138700002 8.436156735405
O 7.32965861221 1.5646777438700001 8.408909940405
O 3.4557288309100005 7.585420805810001 3.5277051247949998
O 8.806751280910001 7.5724653358100005 3.500458329795
O 0.7767150283100002 6.130458763210001 3.5464858438949998
O 6.127737478310001 6.11750329321 3.519239048895
O 4.65764996481 3.032595256470001 8.417376016305
O 10.00867241481 3.019639786470001 8.390129221305
O 4.518368128310001 0.02899299169 8.76047493612
O 9.86939057831 0.01603752169 8.73322814112
O 0.9193886646900001 9.136379810310002 3.8670129388800003
O 6.27041111469 9.12342434031 3.8397661438800004
O 3.5839981169100006 4.581170767530001 3.8694417048600003
O 8.93502056691 4.568215297530001 3.8421949098600003
O 1.8537586760900002 4.5842020344700005 8.75804617014
O 7.204781126090001 4.57124656447 8.73079937514
