80

In 1.6389881182100001 7.45270552352 6.515634523669999
Al 6.7464008382100005 7.4377878185199995 6.49685818367
Al 3.52443215973 1.29676183934 1.83189411263
Ga 8.63184487973 1.28184413434 1.81311777263
Al 0.97584813593 3.07142244894 1.83779901483
Al 6.08326085593 3.05650474394 1.81902267483
Al 4.1875721420100005 5.67804491392 6.509729621469999
Ga 9.294984862010002 5.66312720892 6.4909532814699995
In 0.93091250668 5.753858226705001 -0.01470745106
Al 6.0383252266800005 5.7389405217050005 -0.03348379106
In 4.21900006832 2.988618713295 4.667472936059999
In 9.32641278832 2.973701008295 4.64869659606
Al 1.66062781792 1.3863492325949998 4.68003398366
Al 6.76804053792 1.3714315275949998 4.66125764366
In 3.5235682670800004 7.373869897404999 9.35030295134
Al 8.63098098708 7.358952192404999 9.33152661134
Al 0.89305530645 0.27767397987 9.364522136429999
Ga 6.00046802645 0.26275627487 9.34574579643
Al 4.29107221153 8.48250966575 4.64705965567
In 9.39848493153 8.46759196075 4.62828331567
In 1.7262082875300002 4.6406181562499995 4.664035141669999
In 6.833621007530001 4.62570045125 4.64525880167
Al 3.4579192304500004 4.11956548937 9.347546650429999
Al 8.56533195045 4.10464778437 9.32877031043
Al 3.5295400572700006 1.377262672955 7.36457964595
Al 8.63695277727 1.362344967955 7.34580330595
Al 1.64005125247 7.375398284105 2.6709118513499996
Al 6.747463972469999 7.360480579104999 2.6521355113499996
Al 4.18904100587 5.740714051305 2.6647310467499996
Al 9.29645372587 5.725796346305001 2.6459547067499996
Al 0.9805503038700001 3.0119469057550003 7.37076045055
Al 6.0879630238699995 2.997029200755 7.35198411055
O 4.28162488821 5.856239253175 8.34706954989
O 9.389037608210002 5.841321548174999 8.328293209889999
O 0.8952345256500001 2.900183048165 3.67646709481
O 6.002647245650001 2.8852653431650004 3.65769075481
O 3.44483287345 1.475463380565 3.66987243661
O 8.55224559345 1.460545675565 3.65109609661
O 1.7320265404100004 7.280958920774999 8.35366420809
O 6.839439260410001 7.266041215774999 8.33488786809
O 2.7031842286900005 0.082064754335 5.88847966845
O 7.81059694869 0.067147049335 5.86970332845
O 2.4555734918899996 8.664989670685 1.18369925065
O 7.562986211890001 8.650071965685 1.16492291065
O 4.99705724769 4.440742467085 1.18262264045
O 10.104469967690001 4.425824762085001 1.16384630045
O 0.16170047289 4.306311957935 5.88955627865
O 5.26911319289 4.2913942529349995 5.87077993865
O 0.10173064421 7.2369520152649995 1.12014379505
O 5.20914336421 7.222034310264999 1.1013674550499999
O 5.05647854021 1.5098185347149997 5.80199398085
O 10.16389126021 1.4949008297149997 5.783217640849999
O 2.5066773276100003 2.864550013915 5.80872659025
O 7.614090047610001 2.8496323089150004 5.7899502502499995
O 2.65153185681 5.882220536065 1.11341118565
O 7.758944576809999 5.8673028310649995 1.09463484565
O 5.00745205672 7.301836672209999 5.95024132612
O 10.11486477672 7.286918967209999 5.93146498612
O 0.15192276704 1.4455371122300003 1.29073387908
O 5.2593354870399995 1.4306194072300003 1.27195753908
O 2.7099400040400003 2.9253272632300003 1.27841424608
O 7.81735272404 2.9104095582300005 1.25963790608
O 2.44943481972 5.82204652121 5.96256095912
O 7.55684753972 5.80712881621 5.94378461912
O 1.87777638858 1.4972284485350003 8.11126715396
O 6.98518910858 1.4823107435350003 8.09249081396
O 3.29723171574 7.258235774544999 3.4058806324399997
O 8.404644435740002 7.243318069544999 3.3871042924399997
O 0.7394680597400001 5.865930859045 3.41802782644
O 5.84688077974 5.851013154045 3.39925148644
O 4.43554004458 2.8895333640350005 8.09911995996
O 9.542952764579999 2.8746156590350003 8.080343619959999
O 4.30067755102 0.01224529317 8.424100040859999
O 9.40809027102 -0.00267241183 8.40532370086
O 0.87666183198 8.74442539883 3.73072260414
O 5.984074551979999 8.72950769383 3.71194626414
O 3.4177398581800005 4.380201818430001 3.72992189634
O 8.52515257818 4.3652841134300004 3.71114555634
O 1.75959952482 4.3764688735699995 8.42490074866
O 6.86701224482 4.36155116857 8.40612440866
