80

In -0.038689305 -0.0404202275 6.044295095
Ga -0.116067915 -0.1212606825 18.132885285
Ga 4.7730620649999995 2.8306146825 6.0929695299999995
Al 4.695683454999999 2.7497742274999997 18.18155972
Ga 3.1958657049999997 0.0061053925 6.065009265
In 3.118487095 -0.0747350625 18.153599455
In 1.538507055 2.7840890625 6.07225536
Ga 1.461128445 2.7032486075 18.16084555
Al 0.0 0.0 0.0
In -0.07737861 -0.080840455 12.08859019
Al 4.81175137 2.8710349099999997 0.048674435
Ga 4.734372759999999 2.7901944549999995 12.137264625
Al 3.23455501 0.04652562 0.02071417
Ga 3.1571764 -0.034314835 12.10930436
Al 1.5771963599999999 2.82450929 0.027960265
Al 1.4998177499999998 2.743668835 12.116550455
In -0.046062743757 1.8471007898179999 3.033881827288
Al -0.123441353757 1.7662603348179997 15.122472017287999
Ga -1.703421393757 4.625084459818 3.041127922288
Ga -1.780800003757 4.544244004818 15.129718112288
Al 3.1884922662429993 1.8936264098179998 3.054595997288
Al 3.1111136562429995 1.8127859548179996 15.143186187288
Ga 1.5311336162429994 4.671610079818 3.061842092288
In 1.4537550062429994 4.590769624818 15.150432282288
Ga 1.5458804937569999 0.8965680451819998 9.082668627712
Al 1.4685018837569999 0.8157275901819998 21.171258817712
In -0.1114781562430001 3.6745517151819995 9.089914722711999
In -0.1888567662430001 3.5937112601819994 21.178504912712
Al 4.780435503756999 0.9430936651819999 9.103382797712
In 4.703056893756999 0.8622532101819999 21.191972987712
Ga 3.1230768537569995 3.7210773351819992 9.110628892712
Al 3.0456982437569997 3.640236880181999 21.199219082712
O -0.058745097936 1.8338510392434997 5.015201759429
O -0.136123707936 1.7530105842434998 17.103791949429
O -1.716103747936 4.6118347092435 5.022447854429
O -1.793482357936 4.5309942542435 17.111038044428998
O 3.1758099120639995 1.8803766592434996 5.035915929429
O 3.0984313020639993 1.7995362042434997 17.124506119429
O 1.5184512620639994 4.6583603292435 5.043162024429
O 1.4410726520639994 4.5775198742434995 17.131752214429
O 1.5585628479359999 0.9098177957564998 7.101348695571
O 1.4811842379359998 0.8289773407564999 19.189938885571
O -0.0987958020640001 3.6878014657564995 7.108594790570999
O -0.1761744120640001 3.6069610107564993 19.197184980571
O 4.793117857935999 0.9563434157564998 7.122062865570999
O 4.715739247936 0.8755029607564999 19.210653055571
O 3.1357592079359997 3.734327085756499 7.129308960571
O 3.0583805979359995 3.653486630756499 19.217899150571
O 1.5331981395779999 0.8833182946074998 11.063988559853
O 1.4558195295779999 0.8024778396074999 23.152578749853
O -0.1241605104220001 3.6613019646074996 11.071234654853
O -0.2015391204220001 3.5804615096074994 23.159824844853
O 4.767753149578 0.9298439146074998 11.084702729853
O 4.690374539577999 0.8490034596074999 23.173292919852997
O 3.1103944995779997 3.7078275846074993 11.091948824853
O 3.0330158895779995 3.626987129607499 23.180539014853
O -0.033380389578 1.8603505403924998 1.052561895147
O -0.110758999578 1.7795100853924997 13.141152085147
O -1.690739039578 4.6383342103925 1.059807990147
O -1.768117649578 4.5574937553925 13.148398180147
O 3.2011746204219995 1.9068761603924997 1.073276065147
O 3.1237960104219993 1.8260357053924996 13.161866255147
O 1.5438159704219994 4.6848598303925 1.0805221601469999
O 1.4664373604219993 4.604019375392499 13.169112350147001
O -0.0193446525 -0.02021011375 3.0221475475
O -0.0967232625 -0.10105056875 15.1107377375
O 4.7924067175 2.8508247962499995 3.0708219825
O 4.715028107499999 2.76998434125 15.1594121725
O 3.2152103574999997 0.02631550625 3.0428617175
O 3.1378317475 -0.05452494875 15.131451907499999
O 1.5578517074999998 2.80429917625 3.0501078125
O 1.4804730974999998 2.72345872125 15.1386980025
O -0.0580339575 -0.06063034125 9.0664426425
O -0.1354125675 -0.14147079625 21.155032832499998
O 4.7537174124999995 2.8104045687499997 9.115117077499999
O 4.676338802499999 2.7295641137499995 21.2037072675
O 3.1765210524999996 -0.01410472125 9.0871568125
O 3.0991424425 -0.09494517625 21.1757470025
O 1.5191624025 2.76387894875 9.0944029075
O 1.4417837924999999 2.68303849375 21.1829930975
