80

In 1.6533956354900001 7.47072321976 6.527008245059999
Ga 6.76994432549 7.4501975397599995 6.505596230059999
In 3.5331062163299993 1.2964520432 1.8336046717
Ga 8.649654906330001 1.2759263632 1.8121926567
Al 0.98189193293 3.07841576408 1.84065788492
Ga 6.09844062293 3.05789008408 1.81924586992
Al 4.20460991889 5.68875949888 6.5199550318399995
Al 9.32115860889 5.66823381888 6.498543016839999
Ga 0.93885984191 5.7675099608 -0.015731456805
Al 6.05540853191 5.7469842808000005 -0.037143471805
Ga 4.23221591309 2.9922152192 4.6742833218049995
Al 9.34876460309 2.9716895392000002 4.652871306804999
Ga 1.6675106208900001 1.38865151424 4.688316627064999
Ga 6.78405931089 1.36812583424 4.666904612065
Ga 3.5427176641100004 7.389982505759999 9.366329277935
Al 8.659266354110002 7.3694568257599995 9.344917262934999
Ga 0.89974208139 0.2785655101199999 9.38255823324
In 6.01629077139 0.25803983012 9.36114621824
Al 4.31040789855 8.5000306922 4.65329548368
In 9.426956588549999 8.4795050122 4.63188346868
Al 1.7367552015499998 4.6511430986 4.67195807278
In 6.85330389155 4.630617418600001 4.65054605778
In 3.4733947783900003 4.12745310372 9.36389564414
Ga 8.58994346839 4.10692742372 9.34248362914
Al 3.5411361693600005 1.3778362073600001 7.377219726225
Al 8.65768485936 1.3573105273600001 7.355807711225
Al 1.65241313786 7.3927426467999995 2.6746901177349995
Al 6.768961827859999 7.3722169668 2.6532781027349994
Al 4.204186634059999 5.75111166896 2.6673475742749995
Al 9.32073532406 5.73058598896 2.645935559275
Ga 0.98936267316 3.0194671852 7.3845622696849995
Al 6.105911363160001 2.9989415052 7.363150254685
O 4.2999641585 5.86753262376 8.360863796624999
O 9.4165128485 5.84700694376 8.339451781625
O 0.9018854850800001 2.9070549044800003 3.683017983815
O 6.01843417508 2.88652922448 3.661605968815
O 3.45449780048 1.4759230412 3.675241444995
O 8.57104649048 1.4553973612 3.653829429995
O 1.7473518431000001 7.298664487039999 8.368640335444999
O 6.8639005331 7.278138807039999 8.347228320445
O 2.7111295608200003 0.08005484632 5.898739095024999
O 7.82767825082 0.05952916632 5.877327080025
O 2.4700475469199996 8.6845488144 1.184005032295
O 7.586596236920001 8.664023134399999 1.1625930172949999
O 5.011475606319999 4.446762090320001 1.182015098275
O 10.128024296320001 4.4262364103200005 1.160603083275
O 0.16970150142 4.3178415704 5.900729029044999
O 5.28625019142 4.297315890399999 5.879317014044999
O 0.11038999808 7.25542874032 1.1216514418349999
O 5.22693868808 7.23490306032 1.100239426835
O 5.070160669180001 1.5088723789599998 5.810755180845
O 10.186709359180002 1.4883466989599998 5.789343165845
O 2.5172687473799997 2.86983787072 5.818676384784999
O 7.633817437380001 2.84931219072 5.797264369784999
O 2.66328191988 5.89446324856 1.1137302378949998
O 7.77983060988 5.873937568560001 1.092318222895
O 5.027448558820001 7.315727906359999 5.95879609704
O 10.143997248819998 7.29520222636 5.9373840820399995
O 0.15443329446 1.44921611348 1.2930777230000001
O 5.27098198446 1.42869043348 1.271665708
O 2.71864927546 2.92998866828 1.2792975817
O 7.83519796546 2.90946298828 1.2578855667
O 2.46323257782 5.83495535156 5.972576238339999
O 7.5797812678200005 5.814429671559999 5.95116422334
O 1.88692180407 1.50000067976 8.126213567425
O 7.003470494070001 1.47947499976 8.104801552425
O 3.3128136028900004 7.27356577112 3.4102791348549997
O 8.429362292890001 7.25304009112 3.3888671198549996
O 0.7489471298900001 5.88050118072 3.4238784447549997
O 5.86549581989 5.85997550072 3.4024664297549996
O 4.450788277070001 2.89306527016 8.112614257525
O 9.56733696707 2.87253959016 8.091202242525
O 4.31270693264 0.00862928396 8.43856610832
O 9.429255622640001 -0.01189639604 8.417154093319999
O 0.8896908463600001 8.76622296804 3.73686098868
O 6.00623953636 8.745697288039999 3.71544897368
O 3.4305596929599997 4.388103500920001 3.7351603849
O 8.547108382960001 4.36757782092 3.7137483699
O 1.77183808604 4.38674875108 8.4402667121
O 6.888386776040001 4.366223071079999 8.4188546971
