40

Al 0.9721760344399999 6.03590162703 -0.02701022295
In 4.44672861056 3.1491241229700004 4.868206917949999
In 1.7536635028800003 1.46492859909 4.88764799159
Al 3.66524114212 7.72009715091 -0.04645129659
In 3.7262535691600003 1.46303456279 7.69151367132
In 1.7204017429799998 7.74246806321 2.7765812428599994
In 4.408431235759999 6.031797843690001 2.7696689094199995
In 1.03822407638 3.17370478231 7.69842600476
In 1.72418916078 7.830521277980001 6.795602628269999
In 3.7137638515599996 1.36856002802 1.90795974331
In 1.0259521151 3.2260352526599996 1.91433029339
In 4.41200089724 5.97304605334 6.7892320781899995
Al 0.9527345227499999 0.30953286684 9.787701017789999
Al 4.51441954003 8.911095535160001 4.83684833007
Al 1.81787033123 4.87801992936 4.86495793747
Al 3.64928373155 4.34260847264 9.75959141039
O 4.51322800114 6.16340630455 8.7094855695
O 0.94367668632 3.04965920945 3.8368365615199997
O 3.6320328135800004 1.5591964976100001 3.82911155304
O 1.82487187388 7.65386901639 8.71721057798
O 2.8556211466200003 0.10075162463 6.15188509414
O 2.5757567947599993 9.09347801737 1.21847491192
O 5.25975779562 4.66691520313 1.22158557064
O 0.17162014576 4.52731443887 6.14877443542
O 5.27265938517 7.67624962066 6.2003319102
O 0.15958878619 1.5186221533400002 1.3464813501200001
O 2.85246335709 3.07436329774 1.32751433692
O 2.5797848142699995 6.12050847626 6.219298923399999
O 0.0978219864 7.5921783950899995 1.1577582426
O 5.33278241722 1.60148046291 6.05575442634
O 2.6443174118 3.0185406721900003 6.063750326499999
O 2.7862869918199995 6.175118185810001 1.1497623424399999
O 1.98676636918 1.5877640741300003 8.474067645489999
O 3.46752762834 7.62337504387 3.54289472275
O 0.77478915514 6.159387027670001 3.5615231213499996
O 4.679504842379999 3.0517520903300004 8.45543924689
O 4.54214295029 0.0344901903 8.80054078686
O 0.9154385827099999 9.1790747597 3.88302276414
O 3.59922182725 4.605706940340001 3.88667520622
O 1.8583597057499999 4.60785800966 8.79688834478
