60

Ga -0.00187194958 0.00437853784 2.07197592034
In 5.18730493042 0.04702219784 2.07658144034
Ga -0.00815365958 0.01907161784 9.024915250340001
In 5.18102322042 0.06171527784 9.029520770340001
Ga -0.01069147042 0.02500762216 11.833902739660001
In 5.1784854095799995 0.06765128216 11.838508259660001
Ga -0.00440976042 0.01031454216 4.88096340966
In 5.18476711958 0.05295820216 4.88556892966
Ga 2.5763049255738792 1.53332342889358 6.706376289268331
Ga 7.765481805573879 1.57596708889358 6.710981809268331
Ga 2.570023215573879 1.54801650889358 13.65931561926833
Ga 7.759200095573879 1.59066016889358 13.66392113926833
In 2.5800488247338795 1.52456635321358 2.56242444858833
Ga 7.769225704733879 1.56721001321358 2.56702996858833
In 2.5737671147338794 1.5392594332135798 9.51536377858833
Ga 7.762943994733879 1.5819030932135798 9.51996929858833
Ga -0.0346873447338801 3.0196292467864203 11.336185041411671
Ga 5.154489535266119 3.0622729067864203 11.340790561411671
Ga -0.0284056347338801 3.00493616678642 4.38324571141167
Ga 5.160771245266119 3.04757982678642 4.38785123141167
Ga -0.0309434455738801 3.01087217110642 7.19223320073167
Ga 5.158233434426119 3.05351583110642 7.19683872073167
Ga -0.0246617355738801 2.9961790911064203 0.23929387073167
Ga 5.164515144426119 3.0388227511064203 0.24389939073167
O 1.5951256240399998 0.02048078728 3.47788816516
O 6.78430250404 0.06312444728 3.48249368516
O 1.7669431757999996 3.13159467248 3.4714393993600003
O 6.9561200558000005 3.17423833248 3.47604491936
O -0.8135664648400001 1.38477360024 3.47281226048
O 4.37561041516 1.42741726024 3.47741778048
O 0.7784183041999998 1.41260092752 10.42717009064
O 5.9675951841999995 1.45524458752 10.43177561064
O -1.8302489351599998 3.11677833976 10.42119170952
O 3.35892794484 3.15942199976 10.42579722952
O 3.5814878359599995 0.05154903272 10.432596014840001
O 8.77066471596 0.09419269272 10.43720153484
O 4.1733024991938805 1.54942567833358 8.11228853408833
O 9.36247937919388 1.59206933833358 8.11689405408833
O 1.78719515095388 0.14573012353358 8.113108938288331
O 6.976372030953879 0.18837378353358 8.117714458288331
O 1.7646104103138793 2.9137184912935803 8.10721262940833
O 6.953787290313879 2.9563621512935803 8.11181814940833
O 3.3691585993538804 2.9121596585735805 1.1556917995683302
O 8.558335479353879 2.9548033185735805 1.1602973195683302
O 3.3917433399938797 0.14417129081358 1.1615881084483302
O 8.580920219993878 0.18681495081358 1.16619362844833
O 0.9830512511138799 1.50846410377358 1.1565122037683302
O 6.172228131113879 1.55110776377358 1.1611177237683301
O 1.5623102288861195 3.03573149622642 12.74209728623167
O 6.75148710888612 3.07837515622642 12.74670280623167
O -0.82379711935388 1.63203594142642 12.742917690431671
O 4.365379760646119 1.67467960142642 12.747523210431671
O -0.84638185999388 4.400024309186421 12.73702138155167
O 4.342795020006119 4.442667969186421 12.74162690155167
O 0.7581663290461196 4.39846547646642 5.785500551711671
O 5.94734320904612 4.44110913646642 5.79010607171167
O 0.78075106968612 1.63047710870642 5.791396860591671
O 5.969927949686119 1.67312076870642 5.796002380591671
O -1.6279410191938801 2.9947699216664203 5.786320955911671
O 3.5612358608061188 3.0374135816664203 5.790926475911671
