10

Ga -0.060636565 -0.02841283 5.93027842
Al 0.0 0.0 0.0
Ga -0.0691915914469999 1.78141610479 2.9726960442409998
Al 1.4447827314469999 0.8890513052099999 8.915300745759
O -0.0303182825 -0.014206415 2.96513921
O -0.0909548475 -0.042619245 8.895417629999999
O -0.0890682574539999 1.772102379116 4.916641310317
O 1.4646593974539999 0.8983650308839999 6.971355479682999
O 1.4249060654399999 0.8797375795359998 10.859246011835
O -0.0493149254399999 1.790729830464 1.0287507781649998
