80

Al -0.03811757 -0.0523149425 6.0667811225
Al -0.11435271 -0.1569448275 18.2003433675
In 4.789846685 2.8976909725000004 6.1205990875000005
Al 4.713611544999999 2.7930610875000004 18.2541613325
Ga 3.22733771 0.0290597425 6.0874532275
In 3.15110257 -0.0755701425 18.2210154725
Al 1.5243914049999998 2.8163162875000003 6.0999269825
Ga 1.448156265 2.7116864025000003 18.2334892275
In 0.0 0.0 0.0
In -0.07623514 -0.104629885 12.133562245
Al 4.8279642549999995 2.950005915 0.053817965
Al 4.751729115 2.84537603 12.18738021
In 3.26545528 0.081374685 0.020672105
In 3.1892201399999998 -0.0232552 12.15423435
Al 1.5625089749999999 2.86863123 0.03314586
In 1.4862738349999998 2.764001345 12.166708105
In -0.0658665470889999 1.8589499241574998 3.0485955789295
Al -0.142101687089 1.7543200391574998 15.1821578239295
In -1.7688128520889999 4.6462064691575 3.0610693339295
Al -1.845047992089 4.5415765841575 15.194631578929501
Al 3.199588732911 1.9403246091575 3.0692676839295
In 3.123353592911 1.8356947241575 15.2028299289295
In 1.496642427911 4.727581154157499 3.0817414389295
Ga 1.420407287911 4.622951269157499 15.2153036839295
In 1.5521403820889998 0.9050514208424999 9.118112526070501
Ga 1.4759052420889998 0.8004215358424999 21.2516747710705
Al -0.150805922911 3.6923079658424998 9.1305862810705
Al -0.227041062911 3.5876780808424997 21.2641485260705
Al 4.817595662089 0.9864261058425 9.1387846310705
Al 4.741360522089001 0.8817962208425 21.2723468760705
In 3.114649357089 3.7736826508424994 9.1512583860705
Al 3.0384142170890005 3.6690527658424994 21.2848206310705
O -0.078361486535 1.8418010860059997 5.037286430885
O -0.1545966265349999 1.7371712010059996 17.170848675885
O -1.781307791535 4.629057631006 5.049760185885
O -1.857542931535 4.524427746006 17.183322430885
O 3.1870937934650003 1.9231757710059998 5.057958535885
O 3.1108586534650002 1.8185458860059998 17.191520780885
O 1.4841474884649999 4.710432316005999 5.070432290885
O 1.4079123484649998 4.6058024310059995 17.203994535885
O 1.5646353215349997 0.9222002589939999 7.129421674114999
O 1.4884001815349999 0.8175703739939999 19.262983919115
O -0.138310983465 3.7094568039939997 7.141895429114999
O -0.214546123465 3.604826918994 19.275457674115
O 4.830090601535001 1.003574943994 7.150093779114999
O 4.753855461535 0.898945058994 19.283656024115
O 3.1271442965350005 3.7908314889939994 7.1625675341149995
O 3.0509091565350004 3.6862016039939998 19.296129779115002
O 1.5396454426429997 0.8879025826909999 11.106803378026001
O 1.4634103026429999 0.7832726976909999 23.240365623026
O -0.163300862357 3.675159127691 11.119277133026001
O -0.239536002357 3.570529242691 23.252839378026
O 4.805100722643001 0.969277267691 11.127475483026
O 4.728865582643 0.864647382691 23.261037728026
O 3.1021544176430003 3.7565338126909995 11.139949238026
O 3.025919277643 3.6519039276909995 23.273511483026
O -0.0533716076429999 1.8760987623089997 1.059904726974
O -0.129606747643 1.7714688773089997 13.193466971974
O -1.756317912643 4.663355307309 1.0723784819739999
O -1.832553052643 4.558725422309 13.205940726974001
O 3.212083672357 1.9574734473089999 1.080576831974
O 3.135848532357 1.8528435623089998 13.214139076974002
O 1.5091373673569999 4.744729992308999 1.093050586974
O 1.4329022273569998 4.640100107308999 13.226612831974
O -0.019058785 -0.02615747125 3.03339056125
O -0.095293925 -0.13078735625 15.16695280625
O 4.808905469999999 2.9238484437500003 3.08720852625
O 4.7326703299999995 2.8192185587500003 15.22077077125
O 3.246396495 0.05521721375 3.05406266625
O 3.170161355 -0.04941267125 15.18762491125
O 1.54345019 2.84247375875 3.06653642125
O 1.4672150499999999 2.73784387375 15.20009866625
O -0.057176355 -0.07847241375 9.10017168375
O -0.133411495 -0.18310229875 21.23373392875
O 4.770787899999999 2.87153350125 9.15398964875
O 4.69455276 2.76690361625 21.28755189375
O 3.2082789249999997 0.00290227125 9.12084378875
O 3.132043785 -0.10172761375 21.25440603375
O 1.50533262 2.79015881625 9.13331754375
O 1.4290974799999998 2.68552893125 21.26687978875
