80

In -0.0169762225 -0.037216075 6.1316791875
In -0.0509286675 -0.111648225 18.3950375625
Ga 4.982944102499999 2.809315405 6.162427247499999
Ga 4.9489916575 2.7348832549999997 18.425785622499998
In 3.3044197075 -0.05720983 6.1406879025
Al 3.2704672625 -0.13164198 18.404046277499997
In 1.6615481724999999 2.82930916 6.1534185325
Ga 1.6275957275 2.75487701 18.416776907499997
In 0.0 0.0 0.0
Ga -0.033952445 -0.07443215 12.263358375
Ga 4.999920325 2.84653148 0.03074806
Al 4.96596788 2.77209933 12.294106435
In 3.32139593 -0.019993755 0.009008715
Ga 3.287443485 -0.094425905 12.27236709
Ga 1.678524395 2.866525235 0.021739345
Ga 1.64457195 2.7920930850000003 12.28509772
Ga 0.003394986988 1.8988816026924997 3.0773284364175
Al -0.030557458012 1.8244494526924997 15.340686811417498
In -1.6394765480120002 4.7854005926925 3.0900590664174996
In -1.6734289930120003 4.7109684426925 15.353417441417498
In 3.3247909169879994 1.8788878476924997 3.0863371514174998
Ga 3.2908384719879997 1.8044556976924997 15.349695526417499
Al 1.6819193819879994 4.7654068376925 3.0990677814175
Ga 1.6479669369879992 4.6909746876925 15.362426156417499
Ga 1.6411769630120001 0.8932114823075 9.207769283582499
Ga 1.6072245180120002 0.8187793323075 21.4711276585825
In -0.0016945719879997 3.7797304723075 9.220499913582499
In -0.0356470169879997 3.7052983223075 21.4838582885825
In 4.962572893012 0.8732177273075 9.216777998582499
Ga 4.9286204480119995 0.7987855773075 21.4801363735825
In 3.3197013580120003 3.7597367173075 9.229508628582499
Ga 3.285748913012 3.6853045673074996 21.4928670035825
O -0.0021698187475 1.8866821733074997 5.087292874079999
O -0.0361222637475 1.8122500233074996 17.35065124908
O -1.6450413537475002 4.773201163307499 5.100023504079999
O -1.6789937987475003 4.6987690133074995 17.36338187908
O 3.3192261112524997 1.8666884183074997 5.096301589079999
O 3.2852736662524995 1.7922562683074996 17.35965996408
O 1.6763545762524994 4.7532074083074995 5.1090322190799995
O 1.6424021312524992 4.6787752583075 17.37239059408
O 1.6467417687475001 0.9054109116925 7.197804845919999
O 1.6127893237475002 0.8309787616925 19.46116322092
O 0.0038702337475003 3.7919299016925 7.210535475919999
O -0.0300822112524997 3.7174977516925 19.47389385092
O 4.968137698747499 0.8854171566925 7.206813560919999
O 4.9341852537475 0.8109850066925 19.47017193592
O 3.3252661637475005 3.7719361466924997 7.219544190919999
O 3.2913137187475003 3.6975039966925 19.48290256592
O 1.6356121572765001 0.8810120529225 11.217733721245
O 1.6016597122765002 0.8065799029225 23.481092096244996
O -0.0072593777234997 3.7675310429224997 11.230464351245
O -0.0412118227234997 3.6930988929225 23.493822726244996
O 4.9570080872765 0.8610182979225 11.226742436244999
O 4.923055642276499 0.7865861479225 23.490100811244996
O 3.3141365522765005 3.7475372879224995 11.239473066244999
O 3.2801841072765003 3.6731051379224997 23.502831441244997
O 0.0089597927235 1.9110810320774996 1.0673639987549999
O -0.0249926522765 1.8366488820774998 13.330722373755
O -1.6339117422765002 4.7976000220775 1.080094628755
O -1.6678641872765003 4.723167872077499 13.343453003755
O 3.3303557227234997 1.8910872770774996 1.0763727137549999
O 3.2964032777234995 1.8166551270774998 13.339731088755
O 1.6874841877234994 4.7776062670775 1.089103343755
O 1.6535317427234992 4.703174117077499 13.352461718755
O -0.00848811125 -0.0186080375 3.06583959375
O -0.04244055625 -0.0930401875 15.329197968749998
O 4.99143221375 2.8279234425 3.09658765375
O 4.95747976875 2.7534912924999997 15.359946028749999
O 3.31290781875 -0.0386017925 3.07484830875
O 3.27895537375 -0.1130339425 15.338206683749998
O 1.67003628375 2.8479171975 3.0875789387499997
O 1.6360838387499999 2.7734850475 15.350937313749998
O -0.02546433375 -0.0558241125 9.19751878125
O -0.05941677875 -0.1302562625 21.46087715625
O 4.97445599125 2.7907073675 9.228266841249999
O 4.9405035462499995 2.7162752175 21.49162521625
O 3.29593159625 -0.0758178675 9.206527496249999
O 3.26197915125 -0.1502500175 21.46988587125
O 1.65306006125 2.8107011225000003 9.219258126249999
O 1.61910761625 2.7362689725 21.48261650125
