80

Al -0.0518053375 -0.0467117625 5.998849775
Al -0.1554160125 -0.1401352875 17.996549325
In 4.6503743125 2.8680760724999996 6.060394855
Al 4.546763637500001 2.7746525474999997 18.058094405
Al 3.1406973875000004 0.0533049525 6.02673154
Al 3.0370867125000003 -0.0401185725 18.02443109
Al 1.4578715875000001 2.7680593575 6.03251309
Al 1.3542609125000002 2.6746358325 18.03021264
In 0.0 0.0 0.0
Al -0.103610675 -0.093423525 11.99769955
Al 4.702179650000001 2.914787835 0.06154508
Al 4.598568975000001 2.82136431 12.05924463
Al 3.192502725 0.100016715 0.027881765
Al 3.08889205 0.00659319 12.025581315
In 1.5096769250000002 2.81477112 0.033663315
Al 1.40606625 2.721347595 12.031362865
In -0.0836131887875001 1.8196349762324997 3.0125718610045
Al -0.1872238637875001 1.7262114512324997 15.0102714110045
Ga -1.7664389887875003 4.534389381232501 3.0183534110045
Ga -1.8700496637875004 4.4409658562325 15.0160529610045
Ga 3.1088895362125 1.9196516912324997 3.0404536260045
Ga 3.0052788612125005 1.8262281662324997 15.0381531760045
In 1.4260637362125002 4.6344060962325 3.0462351760045
Al 1.3224530612125 4.5409825712325 15.0439347260045
Al 1.4896794387875 0.9017126187674999 9.0187910039955
In 1.3860687637875 0.8082890937674998 21.0164905539955
Al -0.1931463612125 3.6164670237674996 9.0245725539955
In -0.2967570362125 3.5230434987674997 21.0222721039955
In 4.682182163787501 1.0017293337674997 9.0466727689955
Ga 4.578571488787501 0.9083058087674998 21.0443723189955
Al 2.9993563637875007 3.7164837387675 9.0524543189955
Ga 2.8957456887875006 3.6230602137675 21.0501538689955
O -0.1005949784200001 1.804322860485 4.9789948172495
O -0.2042056534200001 1.7108993354849997 16.9766943672495
O -1.7834207784200005 4.519077265485 4.9847763672495
O -1.8870314534200003 4.425653740485 16.9824759172495
O 3.0919077465800004 1.9043395754849999 5.0068765822495
O 2.9882970715800004 1.8109160504849997 17.0045761322495
O 1.40908194658 4.619093980485 5.0126581322495
O 1.30547127158 4.525670455485 17.0103576822495
O 1.50666122842 0.9170247345149999 7.052368047750499
O 1.40305055342 0.8236012095149998 19.050067597750502
O -0.17616457158 3.6317791395149994 7.058149597750499
O -0.27977524658 3.5383556145149995 19.0558491477505
O 4.699163953420001 1.0170414495149998 7.080249812750499
O 4.595553278420001 0.9236179245149998 19.077949362750502
O 3.016338153420001 3.7317958545149996 7.086031362750499
O 2.912727478420001 3.6383723295149997 19.0837309127505
O 1.4726976491550001 0.8864005030199998 10.9852139602405
O 1.369086974155 0.7929769780199999 22.9829135102405
O -0.210128150845 3.6011549080199994 10.9909955102405
O -0.313738825845 3.5077313830199994 22.9886950602405
O 4.665200374155001 0.9864172180199998 11.0130957252405
O 4.561589699155001 0.8929936930199999 23.0107952752405
O 2.9823745741550005 3.7011716230199996 11.0188772752405
O 2.878763899155001 3.6077480980199996 23.0165768252405
O -0.0666313991550001 1.8349470919799997 1.0461489047595
O -0.1702420741550001 1.7415235669799998 13.043848454759502
O -1.7494571991550003 4.54970149698 1.0519304547594999
O -1.8530678741550004 4.4562779719800005 13.049630004759502
O 3.1258713258450004 1.9349638069799997 1.0740306697595
O 3.0222606508450003 1.8415402819799997 13.0717302197595
O 1.4430455258450001 4.64971821198 1.0798122197595
O 1.339434850845 4.55629468698 13.0775117697595
O -0.02590266875 -0.02335588125 2.9994248875
O -0.12951334375 -0.11677940625 14.9971244375
O 4.676276981250001 2.8914319537499997 3.0609699675
O 4.57266630625 2.7980084287499998 15.0586695175
O 3.16660005625 0.07666083375 3.0273066525
O 3.0629893812500004 -0.01676269125 15.0250062025
O 1.4837742562500003 2.79141523875 3.0330882025
O 1.3801635812500002 2.69799171375 15.0307877525
O -0.07770800625 -0.07006764375 8.9982746625
O -0.18131868125 -0.16349116875 20.995974212500002
O 4.624471643750001 2.84472019125 9.0598197425
O 4.520860968750001 2.75129666625 21.0575192925
O 3.1147947187500002 0.02994907125 9.0261564275
O 3.01118404375 -0.06347445375 21.0238559775
O 1.4319689187500002 2.74470347625 9.0319379775
O 1.3283582437500001 2.6512799512500003 21.0296375275
