80

Al 7.211981434999999 2.4009896825 7.1929674325
In 2.40292165 7.1951997174999995 7.2089890924999995
Ga 7.196187785 7.2101881075 2.3984677624999997
Ga 7.20475323 7.2027332175 7.2001818375
Al 2.3943562050000002 7.2026546074999995 2.4072750175
In 7.20341599 2.4084445725 2.3912533574999997
In 2.4101498550000002 2.3934561825 7.2017746874999995
Ga 2.4015844100000003 2.4009110725 2.4000606125
Al 7.20457612794 4.47907033462 4.795227017959999
Al 2.38695089794 9.28073525962 0.00953460296
Al 7.19502764706 5.13956234538 -0.00550589796
Ga 4.79897226724 7.20320084502 4.4772118704
In 0.01293433724 2.38646892002 9.280518795399999
Ga -0.00169441224 7.1946534799799995 5.1390522396
In 4.48092699506 4.797582422 7.201577155839999
Ga 9.28142133506 0.010827277 2.3838414208399996
In 5.14120429494 -0.003136557 7.193164964159999
In 2.4017615120599998 5.12457395538 4.805015432039999
In 7.20225585206 0.3378188103800001 -0.01272030296
Ga 2.39417910294 4.47899172462 0.00232019796
Al 4.80736537276 2.40044344498 5.1230305796
Ga -0.01025985724 7.20210836998 0.3373381646
Ga 0.00436889224 2.39392381002 4.478804720399999
Al 5.1254106449400005 4.806061868 2.3986652941599997
In 0.33937271494 -0.010670057 7.201972219159999
In 4.47958975506 0.003293777 2.39264867584
Ga 2.40898971706 0.32283042038 4.797801027039999
Al 4.798799927759999 2.40789833498 0.3213165046
In 0.32357906494 4.798528368 2.40747254916
Ga 7.197347922940001 9.28081386962 4.802441422959999
Ga 4.80753771224 7.19574595502 9.2789259454
Ga 9.282758575059999 4.805115922 7.192769900839999
O 5.95985656673 3.7545241686899997 6.29456953491
O 3.65096981065 8.54984858505 8.11145591451
O 8.44509204595 5.859456659949999 1.4914211678899998
O 5.95992567667 5.84528131131 8.103159507689998
O 6.29773823675 5.95821621142 3.75233115029
O 8.11526189423 3.6487570206200006 8.54727078301
O 1.4958825241700002 8.444339017579999 5.858437232589999
O 8.10696144485 5.95779847538 5.842566959109999
O 3.7561700424 6.296534651320001 5.95670347895
O 8.551172403719999 8.11310206768 3.6457860842299996
O 5.86145084768 1.49419917952 8.44254042977
O 5.8470508061999995 8.105274826479999 5.955576132049999
O 3.6464810732699995 5.8491201213099995 3.3056729150899993
O 5.95536782935 1.0537957049500002 1.4887865354899998
O 1.16124559405 3.74418763005 8.108821282109998
O 3.64641196333 3.7583629786899997 1.4970829423099998
O 3.3085994032499997 3.64542807858 5.84791129971
O 1.4910757457700001 5.9548872693799995 1.05297166699
O 8.11045511583 1.15930527242 3.7418052174099996
O 1.49937619515 3.6458458146200003 3.7576754908899996
O 5.8501675976 3.30710963868 3.64353897105
O 1.05516523628 1.49054222232 5.95445636577
O 3.7448867923199995 8.10944511048 1.15770202023
O 3.7592868338 1.49836946352 3.6446663179499996
O 1.1422313367299999 8.556189093690001 1.50887711991
O 8.45146415065 3.76309344005 3.2937201795099993
O 3.6590541159499996 1.04272473495 6.29472809289
O 1.15675685667 1.04345916631 3.3030382826899993
O 1.5117003067500001 1.1414842864199999 8.55563807529
O 3.2976366642299997 8.450421945619999 3.76157836801
O 6.29637686417 3.65758387258 1.04070149759
O 3.30379262485 1.15597633038 1.04244573411
O 8.5566643824 1.5097795063200001 1.13896774395
O 3.76513447372 3.29637014268 8.44909300923
O 1.0438256176799998 6.29586410452 3.6568480147699995
O 1.0438819862 3.3034526814799996 1.1554549070499998
O 8.46410630327 1.0474551963099998 8.09136533009
O 1.15487348935 5.84055084995 6.3065222704899995
O 5.94728352405 8.560919555049999 3.3055143571099994
O 8.449580783330001 8.560185123690001 6.297204167309999
O 8.09463733325 8.46216000358 1.04460437471
O 6.308700975770001 1.15322234438 5.838664081989999
O 3.3099607758299996 5.94606041742 8.55954095241
O 6.302545015150001 8.447667959619999 8.55779671589
O 1.0496732576 8.09386478368 8.461274706049998
O 5.84120316628 6.30727414732 1.1511494407699998
O 8.56251202232 3.3077801854799995 5.943394435229999
O 8.5624556538 6.30019160852 8.44478754295
