80

Ga -0.018794795 -0.0200603175 6.095000235
In -0.056384385 -0.0601809525 18.285000704999998
Ga 4.9489900250000005 2.7127180575 6.119081629999999
In 4.911400435 2.6725974225 18.309082099999998
Ga 3.253707975 -0.0877200075 6.1046021999999995
In 3.216118385 -0.1278406425 18.29460267
Ga 1.676487255 2.7803777474999998 6.109479664999999
Ga 1.638897665 2.7402571124999997 18.299480135
In 0.0 0.0 0.0
Ga -0.03758959 -0.040120635 12.19000047
Ga 4.96778482 2.732778375 0.024081395
In 4.930195230000001 2.69265774 12.214081864999999
In 3.27250277 -0.06765969 0.009601965
Ga 3.23491318 -0.107780325 12.199602435
Ga 1.69528205 2.800438065 0.01447943
In 1.65769246 2.7603174299999997 12.204479899999999
Ga 0.0299524437890001 1.879292830056 3.0539517706034998
Ga -0.0076371462109999 1.8391721950559998 15.2439522406035
Ga -1.547268276211 4.747390585055999 3.0588292356034996
Ga -1.584857866211 4.707269950055999 15.2488297056035
Ga 3.3024552137890004 1.811633140056 3.0635537356034996
Ga 3.2648656237890004 1.7715125050559999 15.2535542056035
Ga 1.7252344937890003 4.679730895056 3.0684312006035
Ga 1.6876449037890002 4.639610260056 15.2584316706035
Ga 1.627740016211 0.8810245999439998 9.1505281293965
Ga 1.590150426211 0.8409039649439999 21.3405285993965
Ga 0.0505192962110003 3.749122354944 9.1554055943965
Ga 0.0129297062110003 3.7090017199439997 21.3454060643965
Ga 4.900242786211 0.8133649099439998 9.1601300943965
Ga 4.862653196210999 0.7732442749439998 21.350130564396498
Ga 3.323022066211 3.6814626649439997 9.1650075593965
Ga 3.285432476211 3.6413420299439996 21.355008029396497
O 0.0237915099880001 1.8727170579794998 5.051892847636499
O -0.0137980800119999 1.8325964229795 17.2418933176365
O -1.553429210012 4.7408148129795 5.0567703126365
O -1.591018800012 4.7006941779795 17.2467707826365
O 3.2962942799880004 1.8050573679795 5.0614948126365
O 3.2587046899880003 1.7649367329795 17.251495282636498
O 1.7190735599880003 4.673155122979501 5.0663722776365
O 1.6814839699880002 4.633034487979501 17.256372747636497
O 1.633900950012 0.8876003720204999 7.152587052363499
O 1.596311360012 0.8474797370204998 19.342587522363498
O 0.0566802300120003 3.7556981270204997 7.157464517363499
O 0.0190906400120003 3.7155774920204996 19.347464987363498
O 4.906403720011999 0.8199406820204999 7.162189017363499
O 4.868814130012 0.7798200470204998 19.3521894873635
O 3.329183000012 3.6880384370204995 7.167066482363499
O 3.291593410012 3.6479178020204994 19.3570669523635
O 1.62157908241 0.8744488278674999 11.1484692064295
O 1.58398949241 0.8343281928674999 23.338469676429497
O 0.0443583624100003 3.7425465828674995 11.1533466714295
O 0.0067687724100003 3.7024259478674995 23.343347141429497
O 4.894081852409999 0.8067891378674998 11.1580711714295
O 4.85649226241 0.7666685028674999 23.3480716414295
O 3.31686113241 3.6748868928674994 11.1629486364295
O 3.2792715424100005 3.6347662578674993 23.3529491064295
O 0.0361133775900001 1.8858686021325 1.0560106935704998
O -0.0014762124099999 1.8457479671325 13.2460111635705
O -1.5411073424100001 4.7539663571325 1.0608881585705
O -1.57869693241 4.7138457221325 13.2508886285705
O 3.3086161475900004 1.8182089121325 1.0656126585705
O 3.2710265575900004 1.7780882771325 13.2556131285705
O 1.73139542759 4.6863066671325 1.0704901235705
O 1.6938058375900003 4.6461860321325 13.2604905935705
O -0.0093973975 -0.01003015875 3.0475001175
O -0.0469869875 -0.05015079375 15.2375005875
O 4.9583874225 2.7227482162500003 3.0715815125
O 4.9207978325 2.6826275812500002 15.2615819825
O 3.2631053725 -0.07768984875 3.0571020824999997
O 3.2255157825 -0.11781048375 15.2471025525
O 1.6858846525000002 2.79040790625 3.0619795475
O 1.6482950625000001 2.75028727125 15.2519800175
O -0.0281921925 -0.03009047625 9.142500352499999
O -0.0657817825 -0.07021111125 21.3325008225
O 4.939592627500001 2.7026878987500003 9.166581747499999
O 4.9020030375 2.66256726375 21.356582217499998
O 3.2443105775 -0.09775016625 9.152102317499999
O 3.2067209875 -0.13787080125 21.3421027875
O 1.6670898575000002 2.77034758875 9.156979782499999
O 1.6295002675 2.73022695375 21.3469802525
