80

Ga 1.64449204696 7.41136364413 6.48216474978
Al 6.71634025696 7.38720008413 6.46096968478
Al 3.50320600546 1.28355367581 1.8208231365000003
Al 8.575054215459998 1.2593901158099998 1.7996280715000001
Al 0.97560353892 3.0539594805699997 1.8282911678400002
Al 6.0474517489199995 3.02979592057 1.80709610284
Ga 4.1720945135 5.6409578393699995 6.47469671844
In 9.2439427235 5.61679427937 6.45350165344
Al 0.9349679489299999 5.7232846648 -0.013988034275
Ga 6.00681615893 5.699121104800001 -0.035183099275
In 4.197457706069999 2.9652394102000006 4.6415484492750005
Al 9.26930591607 2.9410758502000003 4.620353384275
Al 1.6539534947499999 1.37567950428 4.6549966164950005
Ga 6.725801704749999 1.35151594428 4.633801551495
Ga 3.5172345902499997 7.3290710807199995 9.301059918505
In 8.58908280025 7.30490752072 9.279864853505
Al 0.89203005375 0.27328803681 9.31514207556
Ga 5.96387826375 0.24912447681 9.29394701056
Al 4.27908050639 8.43143009517 4.6222574672
Ga 9.35092871639 8.40726653517 4.6010624022
Ga 1.72503006019 4.613499147970001 4.6396717349
Al 6.796878270190001 4.58933558797 4.618476669900001
Ga 3.44608049995 4.09121898401 9.297727807860001
Al 8.51792870995 4.06705542401 9.27653274286
Ga 3.51118986437 1.3628364024300001 7.324575491855001
Ga 8.58303807437 1.33867284243 7.303380426855001
Al 1.64348542545 7.335001689309999 2.657541696025
Al 6.715333635449999 7.3108381293099995 2.636346631025
Ga 4.17174703167 5.70386907463 2.649825783405
Ga 9.243595241669999 5.67970551463 2.6286307184049997
Ga 0.9829282581500001 2.9939690171100004 7.332291404475001
Ga 6.05477646815 2.9698054571100005 7.311096339475001
O 4.2667372939499995 5.81781894241 8.302411790255
O 9.338585503949998 5.79365538241 8.281216725255
O 0.89615563103 2.88345916945 3.6573465750650005
O 5.96800384103 2.8592956094499997 3.6361515100650004
O 3.4254059467699998 1.4612363398900001 3.6492588405250004
O 8.49725415677 1.4370727798900003 3.6280637755250003
O 1.7374869782100002 7.2400417719700005 8.310499524795
O 6.809335188209999 7.21587821197 8.289304459795
O 2.68747264479 0.07586177521 5.856357217135001
O 7.759320854789999 0.05169821521 5.835162152135
O 2.4549537171499995 8.61684873937 1.1779551968250002
O 7.52680192715 8.592685179370001 1.156760131825
O 4.97102123929 4.409162108209999 1.1748250878850002
O 10.042869449290002 4.38499854821 1.153630022885
O 0.17140512265 4.2835484063700004 5.8594873260750004
O 5.243253332649999 4.259384846370001 5.838292261075001
O 0.11483725939 7.20028396657 1.115617740885
O 5.186685469389999 7.17612040657 1.094422675885
O 5.026968903669999 1.49216692385 5.769438735155
O 10.09881711367 1.4680033638499999 5.748243670155
O 2.49738901809 2.84475315837 5.777650410335
O 7.5692372280899995 2.8205895983700002 5.7564553453350005
O 2.64441714497 5.84769773205 1.107406065705
O 7.716265354969999 5.8235341720500005 1.086211000705
O 4.98896574251 7.255185140359999 5.91804261708
O 10.06081395251 7.231021580359999 5.8968475520800006
O 0.15415834317 1.4378174514000002 1.2841827270400001
O 5.2260065531699995 1.4136538914 1.2629876620400002
O 2.6970858072699997 2.9055133160000004 1.2709514559400001
O 7.76893401727 2.881349756 1.2497563909400002
O 2.44603827841 5.787489275760001 5.931273888180001
O 7.517886488409999 5.763325715760001 5.91007882318
O 1.8715088272899998 1.4851067571 8.068192482855
O 6.943357037289999 1.4609431971 8.046997417855
O 3.2892909264699997 7.21529512322 3.387827091985
O 8.36113913647 7.19113156322 3.366632026985
O 0.7467754246700001 5.83464500242 3.400903437285
O 5.81862363467 5.81048144242 3.379708372285
O 4.41402432909 2.8657568779000004 8.055116137555
O 9.485872539089998 2.8415933179000006 8.033921072555
O 4.274992486789999 0.00310769722 8.37791194108
O 9.34684069679 -0.02105586278 8.35671687608
O 0.8884431122099999 8.69839758578 3.7124453699200006
O 5.960291322209999 8.67423402578 3.6912503049200005
O 3.40385149467 4.35143776454 3.7095631422600004
O 8.47569970467 4.32727420454 3.6883680772600003
O 1.75958410433 4.35006751846 8.380794168740001
O 6.83143231433 4.32590395846 8.35959910374
