40

Ga 3.0582890530315874 1.7407558562758825 0.6391870971235464
Ga -0.0797428493059669 -0.0236925107509246 14.22369630969294
Al -1.5109552182184132 4.408921828775883 2.471978864623546
In -0.0026045832184128 1.7571913037758824 2.476578114623546
Ga 1.5395371767815869 4.389396053775883 2.489852589623546
In 3.037486570531587 1.7345752012758826 4.349716582123547
In 4.53976545127438 0.8390059244750421 7.449315428183513
Ga 3.03141481627438 3.490736449475042 7.444716178183513
Ga 1.48927305627438 0.858531699475042 7.431441703183514
Ga -0.0277366430559669 -0.0082408732509246 4.94737259719294
Ga -0.0589403668059669 -0.0175118557509246 10.51316682469294
Al -0.0294788199756202 3.5071718969750423 9.282107195683514
Ga 1.472800151944033 2.6116025667490756 12.38170604219294
In 2.981150786944033 -0.0401279582509246 12.38630529219294
Al -1.577692243055967 2.6311283417490756 12.363832317192939
In 3.006282846781587 1.7253042187758825 9.915510809623546
O 1.4742843118243798 2.665720095775042 1.2745548600835135
O 0.0262677022243799 5.211381399775042 1.2701395800835136
O -1.4541883873756203 2.684464839775042 1.2573960840835137
O 2.985896413931587 1.7192471768758826 13.551829704923547
O -0.0073502102059669 -0.0021838313509246 1.3110537018929402
O -1.51243946927562 4.354804353175043 13.579130046283513
O -0.0644228596756201 1.8091430491750422 13.583545326283513
O 1.4160332299243803 4.3360596091750425 13.596288822283514
O -1.592680987505967 4.438316738049075 6.20694547409294
O -0.0239963271059668 1.6805169920490757 6.21172869409294
O 1.579831103294033 4.418009932049075 6.22553414809294
O 0.0021409534243798 3.516566492575042 3.6421023784835134
O 3.0266692796315873 1.7313612606758826 6.279191914323547
O 4.621491221394033 0.8096110154490754 3.71434867029294
O 3.0528065609940325 3.5674107614490755 3.70956545029294
O 1.4489791305940334 0.8299178214490754 3.69575999629294
O 4.458039772331588 0.8684007800758826 11.184282186523546
O 3.010023162731587 3.414062084075883 11.179866906523547
O 1.5295670731315871 0.8871455240758825 11.167123410523546
O -0.0481230759059669 -0.0142979151509246 8.583691492492939
O -0.0402961108756202 3.5039579563750425 11.211582527883513
O 1.5545259212315872 2.582207657475883 8.646739432723546
O 3.002542530831587 0.0365463534758826 8.651154712723546
O 4.482998620431586 2.563462913475883 8.663898208723547
