80

Ga 10.77183083877 4.530845e-06 1.1793991338849998
In 10.77182057377 3.057156535845 1.179420563885
In 22.95219941877 1.0085845e-05 1.179795098885
Ga 22.95218915377 3.057162090845 1.179816528885
In -0.0554827487700001 -1.505845e-06 4.572407571115
Ga -0.0554930137700001 3.057150499155 4.572429001115
Al 12.12488583123 4.049155e-06 4.572803536115
Ga 12.12487556623 3.057156054155 4.572824966115
In 4.68164141627 1.5285777558449998 1.179211866385
Ga 4.6816311512699995 4.585729760845 1.1792332963849999
Al 16.86200999627 1.5285833108449998 1.1796078313849998
Ga 16.86199973127 4.585735315845 1.179629261385
Al 6.0346964087299995 1.5285772741549999 4.5726162686150005
Al 6.034686143729999 4.585729279155 4.572637698615
Al 18.21506498873 1.5285828291549999 4.5730122336150005
Al 18.21505472373 4.585734834155 4.573033663615
Al 9.239366787139998 1.528578938675 3.945811489205
Ga 9.239356522139998 4.585730943675 3.9458329192050003
Ga 21.41973536714 1.528584493675 3.946207454205
Al 21.41972510214 4.585736498675001 3.9462288842050004
Ga 1.47697103786 1.528576091325 1.806016645795
Al 1.47696077286 4.585728096325 1.8060380757949999
Al 13.65733961786 1.528581646325 1.806412610795
Al 13.65732935286 4.585733651325 1.806434040795
Al 3.1491876296399997 1.58675e-07 3.9456027917050003
Al 3.1491773646399994 3.0571521636749996 3.945624221705
Ga 15.32955620964 5.713675e-06 3.9459987567050003
In 15.32954594464 3.0571577186749996 3.946020186705
Al 7.56716046036 2.866325e-06 1.8062039132949999
Ga 7.56715019536 3.057154871325 1.806225343295
Al 19.74752904036 8.421325e-06 1.806599878295
Al 19.74751877536 3.057160426325 1.806621308295
O 9.433387861529999 3.488375e-06 2.513693956435
O 9.433377596529999 3.057155493375 2.513715386435
O 21.61375644153 9.043375e-06 2.514089921435
O 21.61374617653 3.057161048375 2.514111351435
O 1.28296022847 -4.63375e-07 3.2381127485649994
O 1.2829499634700001 3.0571515416249997 3.2381341785649997
O 13.463328808470001 5.091625e-06 3.2385087135649995
O 13.46331854347 3.0571570966249997 3.238530143565
O 3.34319843903 1.528576713375 2.5135066889349997
O 3.3431881740300002 4.585728718375 2.513528118935
O 15.52356701903 1.5285822683749999 2.513902653935
O 15.52355675403 4.585734273375 2.513924083935
O 7.373139385970001 1.528578316625 3.2383214460649996
O 7.373129120970001 4.585730321625 3.2383428760649995
O 19.55350796597 1.528583871625 3.2387174110649997
O 19.55349770097 4.585735876625001 3.2387388410649995
O 8.8676295282 2.386725e-06 5.119086189375
O 8.8676192632 3.057154391725 5.119107619375
O 21.047998108199998 7.941725e-06 5.1194821543749995
O 21.047987843199998 3.057159946725 5.119503584375
O 1.8487185618 6.38275e-07 0.632720515625
O 1.8487082968000002 3.057152643275 0.632741945625
O 14.0290871418 6.193275e-06 0.633116480625
O 14.0290768768 3.057158198275 0.633137910625
O 2.7774401056999998 1.528575611725 5.118898921875
O 2.7774298406999995 4.585727616725 5.118920351875
O 14.957808685699998 1.528581166725 5.119294886875
O 14.957798420699998 4.585733171725001 5.1193163168749996
O 7.9388977193 1.5285794182749999 0.632929213125
O 7.9388874543 4.585731423275 0.6329506431249999
O 20.1192662993 1.528584973275 0.633325178125
O 20.1192560343 4.585736978275 0.633346608125
O -1.03905088225 1.5285741449299999 4.27331047868
O -1.03906114725 4.58572614993 4.2733319086799995
O 11.14131769775 1.5285796999299999 4.27370644368
O 11.14130743275 4.58573170493 4.2737278736799995
O 11.755388707249999 1.5285808850699998 1.47851765632
O 11.755378442249999 4.585732890070001 1.47853908632
O 23.93575728725 1.5285864400699998 1.47891362132
O 23.93574702225 4.5857384450700005 1.47893505132
O 5.051138540249999 9.1993e-07 4.2734977461799994
O 5.051128275249999 3.0571529249299996 4.27351917618
O 17.23150712025 6.47493e-06 4.2738937111799995
O 17.23149685525 3.0571584799299996 4.27391514118
O 5.66520954975 2.10507e-06 1.47830895882
O 5.66519928475 3.05715411007 1.47833038882
O 17.84557812975 7.66007e-06 1.47870492382
O 17.84556786475 3.05715966507 1.47872635382
