40

In 2.998462994355611 1.7354063862787479 0.6035109731466795
Al -0.0670078643502625 0.0785009930602864 13.770700443768579
Al -1.5110794368943885 4.344790456278748 2.3624006881466793
In -0.0112327618943888 1.746030591278748 2.3848673531466793
In 1.4898761631056114 4.344405511278748 2.3772226331466793
Al 2.980982681855611 1.755884906278748 4.19586762314668
Al 4.466683119994652 0.9065687706609653 7.201927653084743
Al 2.966836444994652 3.505328635660965 7.179460988084743
Ga 1.4657275199946513 0.9069537156609653 7.187105708084743
Al -0.0233070831002625 0.0273046930602864 4.789808818768578
In -0.0495275518502625 0.0580224730602864 10.178343793768578
In -0.0428593112553485 3.5159528406609653 8.960817368084744
Al 1.4428412168997378 2.6666366530602863 11.966877398768577
Ga 2.9426878918997375 0.0678767880602864 11.989344063768579
Al -1.5581143831002624 2.6670215980602863 11.952055453768578
Al 2.954762213105611 1.7866026862787479 9.58440259814668
O 1.4351548917446517 2.639992898260965 1.2132593592847427
O -0.0046979162553484 5.1348023686609645 1.1916913608847428
O -1.4457624842553483 2.640362445460965 1.1990302920847427
O 2.937631506855611 1.806671635878748 13.10491211514668
O -0.0061763768502625 0.0072357434602864 1.269299301768578
O -1.5033932017553486 4.371434263060966 13.116018726884743
O -0.0635403937553484 1.8766247926609654 13.137586725284743
O 1.3775241742446516 4.371064715860966 13.130247794084744
O -1.5886870113502618 4.400060780660286 5.978209104968578
O -0.0288464693502624 1.6973505210602862 6.001574436568578
O 1.5323068126497388 4.399660437860286 5.993623927768578
O -0.0162892362553485 3.4848254902609654 3.5004352600847426
O 2.971892919355611 1.766533736678748 6.06389308114668
O 4.544290695149737 0.8512984454602864 3.586119092568578
O 2.984450153149737 3.5540087050602867 3.562753760968578
O 1.4232968711497376 0.8516987882602864 3.570704269768578
O 4.389075634855612 0.9618390438787482 10.817736214346679
O 2.9492228268556118 3.4566485142787484 10.796168215946679
O 1.5081582588556108 0.9622085910787482 10.80350714714668
O -0.0404377893502625 0.0473736426602864 8.310318335768578
O -0.0519490737553485 3.5266016710609653 10.828842826084744
O 1.5204487913556113 2.611366328678748 8.35106898194668
O 2.960301599355611 0.1165568582787482 8.37263698034668
O 4.4013661673556115 2.6109967814787485 8.36529804914668
