80

In 1.74368591152 7.897100288729999 6.84408183349
In 7.17134362152 7.887602888729999 6.81532938849
In 3.7469742043000003 1.37959439363 1.9205334173500002
Ga 9.174631914299999 1.3700969936299998 1.8917809723500003
In 1.03636504548 3.2531165713299997 1.9274740016700003
In 6.46402275548 3.2436191713299998 1.8987215566700002
Al 4.45429507034 6.02357811103 6.83714124917
In 9.88195278034 6.01408071103 6.80838880417
In 0.9820386513099999 6.0856907987 -0.029367726875
In 6.409696361310001 6.0761933987 -0.058120171875
In 4.487879913689999 3.1756501213 4.9023833718750005
In 9.915537623690001 3.1661527213 4.873630926875
In 1.7711182661300002 1.4781497129 4.923532650935001
Ga 7.198775976129999 1.4686523129 4.8947802059350005
In 3.7514438288700003 7.822160147099999 9.826639354065001
Al 9.17910153887 7.812662747099999 9.797886909065001
In 0.96491555445 0.31487502336 9.86134449018
Al 6.39257326445 0.30537762336 9.83259204518
Al 4.557541253490001 8.98535689876 4.8690732021
In 9.985198963490001 8.97585949876 4.840320757100001
In 1.83669919889 4.91950990476 4.8996458642
In 7.264356908890001 4.91001250476 4.870893419200001
In 3.6857576090500004 4.380722017359999 9.830771828080001
Al 9.11341531905 4.371224617359999 9.802019383080001
In 3.76187842659 1.4766253912299998 7.747847446365001
Al 9.18953613659 1.4671279912299997 7.719095001365001
In 1.73825752463 7.807083700329999 2.794655949275
In 7.16591523463 7.797586300329999 2.765903504275
Ga 4.44912170889 6.08158318423 2.787126403515
In 9.876779418889999 6.07208578423 2.758373958515
Al 1.05101424233 3.20212590733 7.755376992125001
Al 6.478671952330001 3.19262850733 7.726624547125001
O 4.55720216509 6.21608164447 8.771838902365001
O 9.984859875089999 6.20658424447 8.743086457365001
O 0.9540942144900001 3.07588886237 3.8646216415950003
O 6.3817519244900005 3.06639146237 3.8358691965950005
O 3.6653409369100003 1.57242083867 3.8562086536750004
O 9.092998646909999 1.56292343867 3.8274562086750006
O 1.8459554426700002 7.719549668169999 8.780251890285001
O 7.27361315267 7.710052268169999 8.751499445285
O 2.8827765299300006 0.10278751291 6.197305026005001
O 8.31043423993 0.09329011291 6.168552581005001
O 2.60072406581 9.16860739361 1.2240169598750001
O 8.02838177581 9.159109993609999 1.195264514875
O 5.306870279430001 4.704706137909999 1.227383200755
O 10.734527989430001 4.695208737909999 1.1986307557550002
O 0.17663031631 4.56668876861 6.193938785125001
O 5.60428802631 4.55719136861 6.165186340125
O 0.10096636021 7.655442414689999 1.164262688455
O 5.528624070209999 7.645945014689999 1.135510243455
O 5.3816919390499995 1.6153289887899995 6.0990247956650006
O 10.80934964905 1.6058315887899997 6.070272350665
O 2.67031770391 3.0447861816899997 6.1077322643050005
O 8.097975413910001 3.03528878169 6.078979819305
O 2.8123405953500002 6.225985221789999 1.155555219815
O 8.23999830535 6.2164878217899995 1.126802774815
O 5.32257900641 7.740511175669999 6.242941955990001
O 10.75023671641 7.731013775669999 6.214189510990001
O 0.16186917287 1.5315851717699998 1.3561688443700002
O 5.58952688287 1.5220877717699999 1.32741639937
O 2.8784076731700003 3.09956662627 1.3355349065700002
O 8.30606538317 3.0900692262700002 1.30678246157
O 2.60604050611 6.172529721169999 6.263575893790001
O 8.03369821611 6.163032321169999 6.23482344879
O 2.0076833755899997 1.60304869514 8.536980059815
O 7.435341085590001 1.5935512951400002 8.508227614815
O 3.5007702533700003 7.686817488939999 3.566114040705
O 8.928427963370002 7.677320088939999 3.537361595705
O 0.78439114397 6.211349572940001 3.586379877605
O 6.21204885397 6.201852172940001 3.5576274326050004
O 4.724062484990001 3.0785166111399995 8.516714222915
O 10.15172019499 3.0690192111399996 8.487961777915
O 4.584916961649999 0.03638357345 8.865366869890002
O 10.01257467165 0.02688617345 8.836614424890001
O 0.92711642735 9.256132498549999 3.9093738631100003
O 6.35477413735 9.246635098549998 3.8806214181100005
O 3.633007615530001 4.644209581249999 3.9133290654300006
O 9.06066532553 4.634712181249999 3.8845766204300007
O 1.8790257734700002 4.64830649075 8.861411667570001
O 7.3066834834700005 4.63880909075 8.832659222570001
