80

Ga 11.024462838095 1.4716035e-05 1.15484232814
Ga 11.024453498095 3.1107789110349997 1.15483398314
Ga 23.472871443095 3.1981035e-05 1.11685718814
Ga 23.472862103095 3.1107961760349996 1.1168488431399999
Ga 0.0037477969049998 -2.221035e-06 4.60898141186
Ga 0.0037384569049997 3.110761973965 4.608973066860001
Ga 12.452156401904999 1.5043965e-05 4.57099627186
Ga 12.452147061904999 3.110779238965 4.570987926860001
Ga 4.800253865595 1.5553881810349999 1.17383072564
Ga 4.800244525595 4.666152376035 1.1738223806399999
Ga 17.248662470594997 1.5554054460349998 1.13584558564
Ga 17.248653130594995 4.666169641034999 1.13583724064
Ga 6.227947429404999 1.555388508965 4.589984669360001
Ga 6.227938089404999 4.6661527039649995 4.58997632436
Ga 18.676356034405 1.5554057739649998 4.551999529360001
Ga 18.676346694404998 4.666169968965 4.55199118436
Ga 9.494851159385 1.5553933451449997 3.9480912164400004
Ga 9.494841819385 4.666157540145 3.9480828714400005
In 21.943259764384997 1.5554106101449998 3.9101060764400004
Ga 21.943250424384996 4.666174805145 3.9100977314400005
In 1.5333501356149999 1.5553833448549998 1.81572417856
Ga 1.533340795615 4.666147539855 1.81571583356
Ga 13.981758740615 1.555400609855 1.77773903856
Ga 13.981749400615 4.666164804855 1.7777306935600001
Ga 3.270651526885 2.615145e-06 3.9670879589400005
In 3.270642186885 3.110766810145 3.9670796139400006
Ga 15.719060131884998 1.9880145e-05 3.9291028189400006
Ga 15.719050791885 3.1107840751449998 3.9290944739400007
Ga 7.757559108115 9.879855e-06 1.7967357810600002
Ga 7.757549768115 3.1107740748549997 1.79672743606
Ga 20.205967713114998 2.7144855e-05 1.75875064106
Ga 20.205958373115 3.1107913398549996 1.75874229606
O 9.674207403445 1.2193665e-05 2.50397676978
O 9.674198063444999 3.1107763886649997 2.50396842478
O 22.122616008445 2.9458665e-05 2.46599162978
O 22.122606668445002 3.1107936536649996 2.46598328478
O 1.3540032315549997 3.01335e-07 3.25984697022
O 1.3539938915549996 3.110764496335 3.25983862522
O 13.802411836554999 1.7566335e-05 3.22186183022
O 13.802402496554999 3.1107817613349997 3.22185348522
O 3.449998430945 1.555385658665 2.52296516728
O 3.449989090945 4.666149853665 2.5229568222800003
O 15.898407035945 1.555402923665 2.4849800272800002
O 15.898397695944999 4.666167118664999 2.4849716822800003
O 7.578202864055001 1.555391031335 3.2408502277199998
O 7.578193524055001 4.6661552263349995 3.24084188272
O 20.026611469055 1.555408296335 3.20286508772
O 20.026602129054996 4.666172491335 3.20285674272
O 9.130444991874999 1.0170975e-05 5.131892311300001
O 9.130435651874999 3.110774365975 5.1318839663
O 21.578853596875 2.7435975e-05 5.093907171300001
O 21.578844256875 3.1107916309749997 5.0938988263
O 1.8977656431249998 2.324025e-06 0.6319314287000001
O 1.8977563031249998 3.110766519025 0.6319230837
O 14.346174248125 1.9589025e-05 0.5939462887
O 14.346164908125 3.110783784025 0.5939379437000001
O 2.9062360193749996 1.555383635975 5.1508807088
O 2.9062266793749996 4.6661478309749995 5.1508723638000005
O 15.354644624374998 1.5554009009749998 5.1128955688
O 15.354635284374996 4.666165095974999 5.1128872238000005
O 8.121965275625 1.555393054025 0.6129346862
O 8.121955935625 4.666157249025 0.6129263412
O 20.570373880625 1.555410319025 0.5749495462
O 20.570364540624997 4.666174514025 0.5749412012
O -1.00541812729 1.55537862245 4.31058788478
O -1.00542746729 4.66614281745 4.31057953978
O 11.44299047771 1.55539588745 4.27260274478
O 11.44298113771 4.666160082449999 4.27259439978
O 12.03361942229 1.5553980675499999 1.45322751022
O 12.03361008229 4.666162262549999 1.4532191652200002
O 24.48202802729 1.55541533255 1.41524237022
O 24.482018687289997 4.66617952755 1.4152340252200002
O 5.21879084521 5.15745e-06 4.29159948728
O 5.21878150521 3.1107693524499997 4.291591142280001
O 17.66719945021 2.242245e-05 4.25361434728
O 17.66719011021 3.1107866174499996 4.25360600228
O 5.809419789789999 7.33755e-06 1.47222425272
O 5.809410449789999 3.11077153255 1.47221590772
O 18.257828394789996 2.460255e-05 1.43423911272
O 18.257819054789998 3.1107887975499997 1.4342307677200001
