20

Al 10.56882619246 -1.70406e-06 1.16637360484
Al -0.0214229324600001 1.08406e-06 4.37531651516
Al 4.59821680246 1.4711625959399999 1.1448610148399998
Al 5.949172967539999 1.47116314406 4.3968822351600005
Al 9.086398711309998 1.47116240748 3.80830312537
Al 1.4609910586899997 1.47116333252 1.73344012463
Al 3.1158028113099996 3.4748e-07 3.7867374053700003
Al 7.431600448689999 -9.6748e-07 1.75495271463
O 8.730422610449999 -4.286e-07 4.92973489975
O 1.8169806495499998 -1.914e-07 0.61195522025
O 2.7598132204499994 1.4711638714000002 4.90822230975
O 7.787576549549999 1.4711618686 0.6335209402499999
O 9.266285287719999 -1.14454e-06 2.43851912334
O 1.28111797228 5.2454e-07 3.10317099666
O 3.29567589772 1.47116315546 2.41700653334
O 7.25171387228 1.47116258454 3.1247367166599997
O -0.9878368321300001 1.4711643746999998 4.08566745307
O 11.535226602129999 1.4711613653 1.45607579693
O 4.98277255787 7.47e-08 4.1071800430700005
O 5.56463070213 -6.947e-07 1.4345100769299999
