40

In 0.99190126818 6.135479961999999 -0.03172522422
In 4.52903122182 3.2021761079999997 4.93655982422
Ga 1.7885730343800001 1.49137082192 4.95941730686
Ga 3.7323594556200006 7.846285248079999 -0.05458270686
In 3.797503291890001 1.49021621125 7.80418121511
In 1.75611330915 7.871699325869999 2.81273066125
In 4.48981218489 6.13136851005 2.8045839013099996
Al 1.06380441615 3.23054702707 7.81232797505
In 1.7631826692299999 7.963679287849999 6.8925610402499995
In 3.7801845590100003 1.39062875087 1.9331070909099999
In 1.0467779778300002 3.2801978846099993 1.94061771149
Al 4.4965892504100005 6.0741101541099995 6.885050419669999
Ga 0.9770965961400001 0.3202171778999999 9.93498795288
In 4.60066297194 9.05961824434 4.90129807884
In 1.8555280715400002 4.960999871539999 4.934333791239999
In 3.7222314965400005 4.4188355507 9.90195224048
O 4.60117633797 6.26875696941 8.83419223299
O 0.9645117465900002 3.10211851027 3.89240672105
O 3.6986490641700005 1.58564517133 3.88330575207
O 1.8670390203900002 7.785230308349998 8.843293201969999
O 2.9099319195300004 0.10482339585 6.24272495167
O 2.62569133815 9.24373675519 1.2295590164499999
O 5.35398276453 4.742497057849999 1.23318083467
O 0.18164049315 4.6060630931899995 6.23910313345
O 5.37249863403 7.804772712609998 6.2855520037499995
O 0.16414956093 1.5445481882699998 1.36585633889
O 2.9043519906300004 3.12476994617 1.34355547819
O 2.6322962043300002 6.224550954709999 6.30785286445
O 0.10411073523 7.718706425869999 1.1707671413699998
O 5.430601467090001 1.6291775030899998 6.14229516051
O 2.6963180022300004 3.0710316830699997 6.15171419917
O 2.83839420009 6.27685224589 1.1613481027099999
O 2.0286003906600003 1.61833331084 8.59989246718
O 3.5340128820600003 7.7502599193199995 3.5893333632999997
O 0.7939931364600001 6.26331211012 3.6112366368999997
O 4.768620136260001 3.10528112004 8.577989193579999
O 4.627690982010001 0.03827694823 8.930192943929999
O 0.9387942759900002 9.33319022577 3.93572496807
O 3.6667934078100006 4.682712210509999 3.93998292565
O 1.8996918501900002 4.68875496349 8.925934986349999
