40

Al 0.0409846654216931 3.287595169211102 13.457879046641718
Al 1.445931256779022 2.4756167399179945 2.340356403456592
Ga 2.8732208667790218 -0.0114239600820058 2.3325531534565918
Al -1.4216718532209782 2.4829404099179944 2.347299563456592
Al 2.871944435299285 1.6482622233709043 -0.0040553800983094
Al 0.0098310742790218 -0.0071755075820058 4.094118513456593
Al -1.4060950147007154 4.130325723370904 7.0291798299016905
Al 0.0211945952992848 1.6432850233709042 7.02137657990169
Al 1.4615080952992852 4.123002053370904 7.022236669901691
Al 0.0199180779216931 3.302971256711102 4.684768046641717
Al 0.0325580304216931 3.293745604211102 9.948634646641718
Al 2.893011022799285 1.6328861358709044 8.76905561990169
Al 4.331664067921694 0.7963060167111016 11.688510436641717
Ga 2.9043744579216932 3.283346716711102 11.696313686641718
Ga 1.4640609579216934 0.8036296867111016 11.695453596641718
Ga 0.0224710267790218 -0.0164011600820058 9.357985113456593
O 4.249175161599286 0.8479744770709043 1.1843688647016908
O 2.8789771359992855 3.2355335490709045 1.1918599847016906
O 1.4962761759992849 0.8550052002709043 1.1910342983016906
O 0.0307291290790218 -0.0224285863820058 12.797044625456593
O 0.0116599756216931 3.308998683011102 1.2457085346417174
O 1.5284202489992846 2.4239482296709043 12.84449797510169
O 2.898618274599285 0.0363891576709042 12.837006855101691
O 4.281319234599284 2.4169175064709045 12.837832541501692
O 1.3971488042216935 2.502683510411101 5.873192291441717
O 0.0269507786216934 4.890242582411102 5.8806834114417175
O -1.3557501813783066 2.5097142336111014 5.879857725041718
O 2.8802025375992852 1.6422347970709044 3.4350041319016906
O 0.0142129244790218 -0.0103737337820058 5.918925601456593
O -1.3573126483783067 4.103259003011102 3.4963438018417174
O 0.0128853772216934 1.7156999310111019 3.4888526818417174
O 1.395586337221694 4.096228279811102 3.489678368241717
O -1.4548774669209783 4.157392493617994 10.562015858256592
O 0.0295037274790218 1.5708701656179942 10.553900478256592
O 1.527429767479022 4.149775876817994 10.554794971856591
O 0.0281761802216931 3.296943830411102 8.123827558641716
O 2.8973928729992853 1.6296879096709043 10.59386270790169
O 4.380446520479023 0.7692392462179942 8.155674548656593
O 2.8960653260790217 3.3557615742179947 8.163789928656593
O 1.3981392860790218 0.7768558630179943 8.162895435056592
