80

In -0.02692348 -0.0473960325 6.1063266175
Al -0.08077044 -0.1421880975 18.3189798525
Ga 4.8949801200000005 2.8682637274999996 6.149371192499999
Ga 4.84113316 2.7734716624999995 18.3620244275
In 3.27549857 -0.0102971275 6.1208914325
In 3.2216516100000003 -0.1050891925 18.3335446675
In 1.5925580700000002 2.8311648225 6.1348063774999995
Al 1.5387111100000002 2.7363727575 18.3474596125
Ga 0.0 0.0 0.0
Ga -0.05384696 -0.094792065 12.212653235
In 4.9219036 2.9156597599999996 0.043044575
In 4.868056640000001 2.8208676949999996 12.25569781
Ga 3.30242205 0.037098905 0.014564815
Al 3.24857509 -0.05769316 12.22721805
Al 1.6194815500000002 2.878560855 0.02847976
Al 1.5656345900000002 2.78376879 12.241132995
Al -0.0346126080350001 1.8827855846564996 3.0672934639264997
In -0.0884595680350001 1.7879935196564996 15.2799466989265
Ga -1.7175531080350002 4.7242475346565 3.0812084089265
In -1.7714000680350002 4.6294554696565 15.2938616439265
Ga 3.267809441965 1.9198844896564997 3.0818582789264997
Al 3.213962481965 1.8250924246564997 15.2945115139265
Al 1.5848689419649995 4.7613464396565 3.0957732239265
Al 1.5310219819649995 4.6665543746565 15.3084264589265
In 1.600247198035 0.9009832053434998 9.173839531073499
In 1.546400238035 0.8061911403434999 21.3864927660735
Ga -0.0826933019649999 3.7424451553434994 9.187754476073499
In -0.1365402619649999 3.6476530903434994 21.4004077110735
In 4.902669248035 0.9380821103435 9.188404346073499
In 4.8488222880350005 0.8432900453435 21.4010575810735
Al 3.2197287480350005 3.7795440603434995 9.202319291073499
In 3.1658817880350005 3.6847519953434995 21.414972526073498
O -0.0434381247790001 1.8672491652029997 5.068947329143
O -0.0972850847790001 1.7724571002029996 17.281600564142998
O -1.7263786247790003 4.708711115202999 5.082862274142999
O -1.7802255847790003 4.613919050202999 17.295515509142998
O 3.258983925221 1.9043480702029998 5.083512144143
O 3.205136965221 1.8095560052029998 17.296165379142998
O 1.5760434252209994 4.745810020203 5.097427089142999
O 1.5221964652209994 4.651017955203 17.310080324142998
O 1.6090727147789998 0.9165196247969999 7.172185665856999
O 1.5552257547789998 0.8217275597969999 19.384838900857
O -0.0738677852209999 3.7579815747969993 7.186100610856999
O -0.1277147452209999 3.6631895097969993 19.398753845857
O 4.911494764779 0.953618529797 7.1867504808569995
O 4.857647804779 0.858826464797 19.399403715857
O 3.2285542647790004 3.7950804797969995 7.200665425856999
O 3.1747073047790004 3.7002884147969994 19.413318660857
O 1.5914216812909998 0.8854467858899999 11.17549339629
O 1.5375747212909998 0.7906547208899999 23.38814663129
O -0.0915188187089999 3.7269087358899995 11.18940834129
O -0.1453657787089999 3.6321166708899995 23.40206157629
O 4.893843731291001 0.92254569089 11.19005821129
O 4.839996771291 0.82775362589 23.40271144629
O 3.2109032312910006 3.7640076408899996 11.203973156290001
O 3.1570562712910006 3.6692155758899996 23.41662639129
O -0.0257870912910001 1.8983220041099995 1.0656395987099998
O -0.0796340512910001 1.8035299391099997 13.278292833710001
O -1.7087275912910003 4.73978395411 1.0795545437099998
O -1.7625745512910003 4.64499188911 13.29220777871
O 3.276634958709 1.9354209091099996 1.08020441371
O 3.222787998709 1.8406288441099998 13.292857648710001
O 1.5936944587089994 4.7768828591100005 1.09411935871
O 1.5398474987089994 4.6820907941100005 13.30677259371
O -0.01346174 -0.02369801625 3.05316330875
O -0.0673087 -0.11849008125 15.265816543749999
O 4.90844186 2.8919617437499996 3.09620788375
O 4.8545949 2.7971696787499996 15.308861118749999
O 3.28896031 0.01340088875 3.06772812375
O 3.23511335 -0.08139117625 15.280381358749999
O 1.6060198100000003 2.85486283875 3.08164306875
O 1.5521728500000003 2.76007077375 15.294296303749999
O -0.04038522 -0.07109404875 9.15948992625
O -0.09423218 -0.16588611375 21.372143161249998
O 4.88151838 2.8445657112499996 9.20253450125
O 4.827671420000001 2.7497736462499995 21.415187736249997
O 3.26203683 -0.03399514375 9.17405474125
O 3.20818987 -0.12878720875 21.386707976249998
O 1.57909633 2.80746680625 9.18796968625
O 1.52524937 2.71267474125 21.400622921249997
