80

Al 7.043646739999999 2.3466340725 7.017235072499999
Ga 2.34606488 7.023602232499999 7.0372478675
Al 7.021906119999999 7.0422408775 2.3380230324999998
Al 7.033550459999999 7.0339187925 7.025359702499999
In 2.33442054 7.0319243175 2.3499111975
Al 7.032002399999999 2.3549561575 2.3298984025
Al 2.35616116 2.3363175125 7.0291232374999995
Ga 2.34451682 2.3446395975 2.3417865675
Al 7.033462977039999 4.375702114040001 4.677076577659999
Ga 2.32423677704 9.06099235904 0.00975270266
Al 7.020445542959999 5.02149492096 -0.00915514266
In 4.683193684879999 7.03348745678 4.36889655644
Al 0.01744872488 2.3275640917800002 9.059996761439999
Al -0.00270826488 7.02203909322 5.01826250856
In 4.376106790560001 4.68441662642 7.02804986522
Ga 9.06204431056 0.01577055142 2.32070040022
Al 5.02370110944 -0.00146504142 7.01830844478
In 2.34460430296 5.00285627596 4.69006969234
In 7.030541822959999 0.33421020096 -0.01727977266
In 2.33433305704 4.37370763904 0.00162807266
Al 4.694873595119999 2.34507093322 4.99824971356
In -0.01435260488 7.03036117822 0.33092583856
Al 0.00580438488 2.33588617678 4.37266009144
Al 5.00196048944 4.69414176358 2.33909640478
Al 0.33621552944 -0.01178160142 7.030196609779999
Ga 4.37455873056 0.00545399142 2.33258856522
Ga 2.35470058296 0.3155715559600001 4.68194506234
Al 4.68322925512 2.3533930182200002 0.31091304356
Ga 0.31447490944 4.6838252035800005 2.35098456978
Al 7.023366697039999 9.06298683404 4.68520120766
Ga 4.694838024879999 7.025165371779999 9.05623322644
Al 9.063592370559999 4.69473318642 7.01616170022
O 5.81986420232 3.6673306099200005 6.1413978470999995
O 3.5641531157599995 8.34653427716 7.917667384219999
O 8.24131038584 5.72467344404 1.45142166998
O 5.819840496079999 5.70785764388 7.907378773699999
O 6.14656756764 5.819260509049999 3.65997454466
O 7.92555270012 3.56492078501 8.33894144222
O 1.4589088542799997 8.24270357439 5.719766305379999
O 7.914139077959999 5.81951110655 5.699183382739999
O 3.6668063858 6.14746571716 5.81366044033
O 8.344906481319999 7.92419593268 3.5549055346099996
O 5.726701435479999 1.46035153312 8.23776763879
O 5.7067538974 7.91438279204 5.811532061269999
O 3.55820307768 5.71122778008 3.2257484228999993
O 5.813914164239999 1.03202411284 1.4494788857799998
O 1.1367568941599997 3.6538849459600002 7.915724600019999
O 3.5582267839199995 3.67070074612 1.4597674962999998
O 3.2314997123599993 3.55929788095 5.707171725339999
O 1.4525145798799999 5.813637604989999 1.02820482778
O 7.919158425719999 1.1358548156100001 3.64737996462
O 1.46392820204 3.55904728345 3.66796288726
O 5.7112608942 3.23109267284 3.5534858296699996
O 1.03316079868 1.4543624573199998 5.81224073539
O 3.65136584452 7.9182068568799995 1.1293786312099998
O 3.6713133826 1.46417559796 3.55561420873
O 1.1106380023199998 8.35262085492 1.4740739720999998
O 8.25009063576 3.6778882021600006 3.2103179192199995
O 3.57556542584 1.01875007904 6.14252187498
O 1.1308068560799998 1.01857844888 3.2238056386999996
O 1.4808226076399997 1.1133371440500002 8.351074749659999
O 3.216326500119999 8.25021103001 3.6716175672199998
O 6.14484637428 3.5740574993900003 1.01241684038
O 3.2251054379599995 1.1302319115500001 1.01561024774
O 8.352743905799999 1.47881964216 1.1063109753299998
O 3.6791615213199997 3.2182725676799997 8.24600573961
O 1.0174752354799999 6.14564177812 3.5704437637899997
O 1.0177202574 3.22510359704 1.1279589262699998
O 8.26742927768 1.0259375350800002 7.893072297899999
O 1.1279766442399999 5.70067018784 6.15682835078
O 5.80250185416 8.359808310960002 3.2246243950199993
O 8.24726042392 8.35997994112 6.1433406313
O 7.897244672359999 8.265221245949999 1.01607152034
O 6.16174077988 1.12834735999 5.695528702779999
O 3.2332209057199996 5.80450089061 8.354729429619999
O 6.152961842040001 8.248326478449998 8.35153602226
O 1.0253233742 7.89973874784 8.260835294669999
O 5.69890575868 6.16028582232 1.12114053039
O 8.360592044519999 3.23291661188 5.79670250621
O 8.3603470226 6.153454792960001 8.23918734373
