40

Al 0.12235442625 -0.07606710125 12.1707388425
Al 0.01747920375 -0.01086672875 1.7386769775
Al 0.1175017702153634 3.3145139288031635 11.031813718500839
Al 2.9628401197846372 1.6678648111968362 2.87829345149916
Al 2.930307995 -0.00569222 -0.02959808
In -1.460053865 2.540348505 0.029943755
In 1.4702541300000003 2.534656285 0.000345675
Al -1.4100425364653635 4.203038807446837 4.676512263999159
Al 0.0500113285346367 1.6626903024468362 4.6465685089991595
Al 1.5202654585346371 4.1973465874468365 4.64691418399916
Al 1.5600764314653635 0.7850321525531636 9.26319298600084
Al 4.490384426465364 0.7793399325531636 9.233594906000839
In 3.030330561465364 3.3196884375531637 9.263538661000839
Al 0.0825433641136997 3.336247385433825 7.554459902594998
Al 2.9977985258863007 1.6461313545661744 6.3556472674050015
Al 0.069916815 -0.043466915 6.95470791
O 4.467037792284637 0.7914087598968363 12.73492529649916
O 3.065386081884637 3.2301433246968365 12.76367130129916
O 1.653942117084637 0.7968732910968364 12.76333945329916
O 1.426399772915364 4.185505448903164 1.14676771670084
O -1.3866959022846366 4.190969980103164 1.1751818735008401
O 0.0149558081153636 1.7522354153031636 1.14643586870084
O 0.10417605435 -0.06476570335 10.3625147859
O 0.03565757565 -0.02216812665 3.5469010341
O 0.1356801435136997 3.303212530033825 12.840037914194998
O 2.9446617464863007 1.6791662099661744 1.0700692558050018
O 1.6334344833863002 2.4356535758661746 10.408431242405001
O 3.0350861937863005 -0.0030809889338254 10.379685237605
O 4.446530158586301 2.4301890446661742 10.380017085605001
O -1.3661882685863 2.5521896953338254 3.530090084394998
O 1.4469074066137004 2.5467251641338255 3.501675927594998
O 0.0452556962137002 4.985459728933825 3.530421932394998
O -1.4333892612499994 4.21510768745 8.1778423775
O 0.08506675835 1.57314524225 8.146700872299999
O 1.6141310535500009 4.20918777865 8.147060374299999
O 1.46621083645 0.77319096135 5.763046795699999
O 4.51373115125 0.7672710525499999 5.7322647925
O 2.99527513165 3.4092334977500003 5.7634062977
O 0.0643649908153634 3.3475487842031635 5.7462357069008405
O 3.015976899184637 1.6348299557968362 8.16387146309916
