30

Al -0.0004569617 0.00168625285 1.9335183876499997
Ga -0.0020326917 0.00750091785 8.60082317265
Al -0.0026944983 0.00994307715 11.40109118235
Ga -0.0011187683 0.00412841215 4.733786397349999
Al 2.451459889600519 1.4325406920380042 6.377394306547198
Ga 2.4498841596005185 1.438355357038004 13.044699091547198
Al 2.4523738130005186 1.4291681863380041 2.5103575312471977
Ga 2.4507980830005187 1.434982851338004 9.177662316247197
Al -0.0119253530005185 2.847073623661996 10.821007938752802
Al -0.0103496230005185 2.841258958661996 4.153703153752802
Al -0.0110114296005185 2.8437011179619955 6.953971163452802
Ga -0.0094356996005185 2.8378864529619956 0.2866663784528021
O 1.4885486470600002 0.00785276215 3.33373190576
O 1.7024012792400003 2.9753422310599995 3.3313912547999998
O -0.7497136013 1.2901394842899998 3.33258991694
O 0.7380471807600002 1.3008995789399997 9.9999742152
O -1.7251399586999998 2.9697807757099994 9.99851313306
O 3.42360191294 0.02009811785 10.00114008424
O 3.9404654983605187 1.438707201338004 7.777607824657197
O 1.7107182105405188 0.1415841902480043 7.778511273697197
O 1.7022032500005189 2.7209939234780043 7.776465835837198
O 3.1931154920605187 2.720124688128004 1.1092405640971978
O 3.2016304526005186 0.1407149548980043 1.1112860019571977
O 0.9633682042405189 1.423001677038004 1.1101440131371978
O 1.4770802557594818 2.8532401329619956 12.221221456862802
O -0.7526670320605188 1.5561171218719956 12.222124905902803
O -0.7611819926005184 4.135526855101995 12.220079468042801
O 0.7297302494594817 4.134657619751995 5.552854196302802
O 0.7382452099994813 1.5552478865219956 5.554899634162802
O -1.5000170383605185 2.8375346086619957 5.553757645342802
