40

Ga -0.066166394355611 3.5432575337212517 13.75062618685332
Al 1.4894553831002628 2.6120272669397133 2.387259761231422
In 2.9893020581002627 0.0132674019397136 2.4097264262314217
Al -1.5115002168997373 2.6124122119397133 2.372437816231422
Al 3.0013763800053486 1.7319932993390343 0.0047848169152574
Al 2.9751559112553485 1.7627110793390344 5.393319791915258
In -0.0203936981497375 0.0238916069397136 4.191082806231423
In -1.5343865199946511 4.372095149339034 7.152209506915257
In -0.0345398449946513 1.7733352843390344 7.174676171915258
Al 1.4665690800053488 4.371710204339035 7.167031451915258
Al -0.048686081855611 3.5227790137212516 10.158269536853322
In 2.9576755987553485 1.7831895993390343 8.985676441915258
Al 4.4433760368943895 0.9338734637212517 11.99173647185332
Al 2.9435293618943894 3.5326333287212517 11.96926980685332
Al 1.442420436894389 0.9342584087212517 11.97691452685332
Ga -0.0466141668997375 0.0546093869397136 9.579617781231423
O 4.435689801755349 0.9072296569390346 1.2381184331152575
O 2.9958369937553493 3.4020391273390347 1.2165504347152576
O 1.5547724257553484 0.9075992041390346 1.2238893659152574
O -0.0637448731497375 0.0746783365397136 13.100127298231422
O -0.005334906855611 3.4719922841212516 1.2492250448533206
O 1.4971417082553486 2.6386710217390346 13.14087780071526
O 2.936994516255349 0.1438615513390346 13.16244579911526
O 4.378059084255349 2.638301474539035 13.155106867915258
O 1.4118478086443893 2.6672975913212515 6.003068178053321
O -0.0280049993556109 5.162107061721251 5.981500179653321
O -1.4690695673556107 2.6676671385212516 5.988839110853321
O 2.9842456737553484 1.7520622489390343 3.5252943339152574
O -0.0294834606497375 0.0345404373397136 6.059108264231423
O -1.456779034855611 4.3168248761212515 3.5364009456533205
O -0.0169262268556109 1.8220154057212519 3.5579689440533206
O 1.424138341144389 4.3164553289212515 3.5506300128533206
O -1.611994095149737 4.427365474539713 10.768018067431422
O -0.0521535531497374 1.7246552149397134 10.791383399031423
O 1.5089997288502637 4.426965131739713 10.783432890231422
O -0.039596319355611 3.5121301833212515 8.29024407885332
O 2.9485858362553485 1.7938384297390344 10.853701899915258
O 4.520983611350262 0.8786031393397136 8.375928055031423
O 2.961143069350262 3.581313398939714 8.352562723431424
O 1.3999897873502627 0.8790034821397136 8.360513232231423
