80

Al -0.0437800225 -0.0379044325 6.01830252
Ga -0.1313400675 -0.1137132975 18.05490756
Al 4.7207839824999995 2.8171618974999997 6.069648355
Al 4.6332239374999995 2.7413530324999997 18.106253395
Ga 3.1626110675 0.0142349375 6.041688495
Ga 3.0750510225 -0.0615739275 18.078293535
In 1.5143928924999999 2.7650225274999998 6.04626238
Ga 1.4268328474999998 2.6892136625 18.08286742
Al 0.0 0.0 0.0
Ga -0.087560045 -0.075808865 12.03660504
Al 4.7645640049999995 2.8550663299999997 0.051345835
In 4.6770039599999995 2.7792574649999997 12.087950874999999
Ga 3.20639109 0.05213937 0.023385975
In 3.118831045 -0.023669495 12.059991015
Ga 1.5581729149999999 2.8029269599999997 0.02795986
In 1.4706128699999998 2.727118095 12.064564899999999
Al -0.0519020964080001 1.832100843265 3.0199947572085
In -0.1394621414080001 1.756291978265 15.056599797208499
Al -1.7001202714080001 4.582888433265 3.0245686422085
Ga -1.7876803164080002 4.5070795682650004 15.0611736822085
Al 3.1544889935919995 1.8842402132649998 3.0433807322085
Al 3.0669289485919995 1.8084313482649998 15.079985772208499
Ga 1.5062708185919993 4.635027803265 3.0479546172084997
Ga 1.4187107735919993 4.559218938265 15.0845596572085
Al 1.522514966408 0.8950172517349999 9.0445701427915
Al 1.434954921408 0.8192083867349998 21.081175182791497
In -0.1257032085919998 3.6458048417349995 9.049144027791499
In -0.2132632535919998 3.5699959767349996 21.0857490677915
Ga 4.728906056407999 0.947156621735 9.0679561177915
Ga 4.641346011407999 0.871347756735 21.104561157791498
Al 3.080687881408 3.6979442117349994 9.072530002791499
Al 2.993127836408 3.6221353467349995 21.1091350427915
O -0.0662531877835001 1.8196757702914999 4.9927943232645
O -0.1538132327835001 1.7438669052915 17.0293993632645
O -1.7144713627835002 4.5704633602915 4.9973682082645
O -1.8020314077835002 4.4946544952915 17.0339732482645
O 3.1401379022164995 1.8718151402914998 5.0161802982645
O 3.0525778572164994 1.7960062752914998 17.0527853382645
O 1.4919197272164992 4.6226027302915 5.0207541832645
O 1.4043596822164992 4.5467938652915 17.0573592232645
O 1.5368660577835 0.9074423247084998 7.071770576735499
O 1.4493060127835 0.8316334597084999 19.1083756167355
O -0.1113521172164998 3.6582299147084996 7.076344461735499
O -0.1989121622164998 3.5824210497084996 19.1129495017355
O 4.743257147783499 0.9595816947085 7.095156551735499
O 4.655697102783499 0.8837728297085 19.1317615917355
O 3.0950389727835 3.7103692847084995 7.099730436735499
O 3.0074789277835 3.6345604197084995 19.1363354767355
O 1.5081638750325 0.8825921787614999 11.0173697088475
O 1.4206038300325001 0.8067833137614999 23.053974748847498
O -0.1400542999674998 3.6333797687614995 11.0219435938475
O -0.2276143449674998 3.5575709037614995 23.058548633847497
O 4.7145549650325 0.9347315487615 11.0407556838475
O 4.6269949200325 0.8589226837615 23.077360723847498
O 3.0663367900325 3.6855191387614994 11.0453295688475
O 2.9787767450325 3.6097102737614994 23.081934608847497
O -0.0375510050325001 1.8445259162385 1.0471951911525
O -0.1251110500325001 1.7687170512384998 13.0838002311525
O -1.6857691800325 4.5953135062385 1.0517690761524998
O -1.7733292250325001 4.5195046412385 13.088374116152501
O 3.1688400849674996 1.8966652862384998 1.0705811661525
O 3.0812800399674996 1.8208564212384997 13.1071862061525
O 1.5206219099674994 4.6474528762385 1.0751550511524999
O 1.4330618649674993 4.5716440112385 13.111760091152501
O -0.02189001125 -0.01895221625 3.00915126
O -0.10945005625 -0.09476108125 15.045756299999999
O 4.7426739937499995 2.8361141137499994 3.0604970949999997
O 4.6551139487499995 2.7603052487499995 15.097102135
O 3.18450107875 0.03318715375 3.032537235
O 3.09694103375 -0.04262171125 15.069142274999999
O 1.5362829037499999 2.7839747437499995 3.03711112
O 1.4487228587499998 2.7081658787499996 15.07371616
O -0.06567003375 -0.05685664875 9.02745378
O -0.15323007875 -0.13266551375 21.06405882
O 4.6988939712499995 2.7982096812499995 9.078799615
O 4.6113339262499995 2.7224008162499995 21.115404655
O 3.14072105625 -0.00471727875 9.050839755
O 3.05316101125 -0.08052614375 21.087444795
O 1.4925028812499999 2.7460703112499996 9.05541364
O 1.4049428362499998 2.6702614462499996 21.09201868
