40

In 0.0088220363652029 -0.0041203024721054 1.8114042171061906
Al 0.0601628936347971 -0.0280988775278946 12.35307980289381
Al -1.3792415705191652 4.119723945364848 4.63885558818873
Al 0.021035982106654 1.6991132704734597 4.626487807891604
Al 1.417128469423004 4.122099762815039 4.625245736743614
Al 1.5262709605769962 0.8343673871849616 9.536680983256385
Al 4.322641000519165 0.8367432046351526 9.52307113181127
Ga 2.9223634478933467 3.257353879526541 9.535438912108395
Al 0.0089750447477519 3.318627145914839 2.440205390065043
Al 2.9344243852522482 1.6378400040851613 11.721721329934956
Al 0.0352400786389445 3.3063601499978112 7.833131828296639
Al 2.9081593513610557 1.650107000002189 6.32879489170336
Al 0.034492465 -0.01610959 7.08224201
Al 2.878722815 0.002445785 -0.01401066
Ga -1.441515565 2.49189738 0.01273201
Al 1.4372072500000002 2.494343165 -0.00127865
O 1.4530514304824056 2.487111675052123 3.5688134608432036
O 0.0130804494103028 4.976338987009454 3.5815318284944886
O -1.422586833021322 2.4846685107107507 3.582809108421013
O 4.365986263021322 2.4717986392892493 10.579117611578985
O 1.4903479995175946 2.4693554749478768 10.593113259156796
O 2.9303189805896976 -0.0198718370094533 10.580394891505511
O 0.0609820860371096 3.294337431848749 13.1186666898096
O 2.882417343962891 1.6621297181512515 1.043260030190399
O 0.0178705130037336 -0.0083463631137936 3.66930278642867
O 0.0511144169962664 -0.0238728168862064 10.495181233571328
O -1.3623533453430872 4.108160502378768 1.19355855166875
O 0.0042238221373134 1.7458065008718668 1.1814884259034883
O 1.366716645991973 4.1104791411910835 1.1802762475978044
O 1.576682784008027 0.845988008808917 12.981650472402196
O 4.305752775343087 0.8483066476212326 12.96836816833125
O 2.939175607862687 3.2106606491281333 12.980438294096512
O -1.5171690524138037 4.2011634512838825 8.328620353533198
O 0.0391568846699605 1.5107974093153538 8.31487429495754
O 1.5908313684205606 4.203804032297678 8.3134938061111
O 1.3525680615794398 0.7526631177023225 5.848432913888899
O 4.460568482413804 0.7553036987161185 5.833306366466802
O 2.90424254533004 3.4456697406846466 5.847052425042459
O 0.0259557363161001 3.310696370915646 5.926803613306218
O 2.9174436936839 1.6457707790843545 8.235123106693782
