80

Ga 1.7360469305200001 7.7730128698100005 6.748241403399999
Ga 7.066105980520001 7.749618029810001 6.7175332683999995
Ga 3.68409313504 1.3486703344100002 1.89178092122
Ga 9.01415218504 1.3252754944100003 1.86107278622
Ga 1.02709616832 3.20158912497 1.90078324214
Ga 6.357155218319999 3.17819428497 1.8700751071400001
Ga 4.393043897240001 5.92009407925 6.739239082479999
Ga 9.723102947240001 5.89669923925 6.708530947479999
Ga 0.98024603207 5.993454213880001 -0.026187098985
Ga 6.31030508207 5.970059373880001 -0.056895233985
Ga 4.41771902793 3.1149542911200006 4.831022788985
Ga 9.74777807793 3.0915594511200006 4.800314653985
Ga 1.7453727171700002 1.4494995716 4.852162605845
Ga 7.0754317671699996 1.4261047316000002 4.821454470845
Ga 3.7088740828300004 7.692601063400001 9.686649314155
Ga 9.03893313283 7.669206223400001 9.655941179155
In 0.9528683328600001 0.30317682315 9.71813995839
In 6.2829273828600005 0.27978198315 9.68743182339
In 4.501265903659999 8.838856427589999 4.80120400915
In 9.831324953660001 8.815461587589999 4.77049587415
Ga 1.8187397170600001 4.8399726443899995 4.8303935642499995
In 7.14879876706 4.81657780439 4.79968542925
Ga 3.6353945194600006 4.3020606063499995 9.688950403289999
In 8.96545356946 4.27866576635 9.65824226829
In 3.70162730561 1.4415385338700002 7.634667467005
In 9.031686355609999 1.4181436938700003 7.603959332005
Ga 1.72864347315 7.686209253750001 2.7574705790149996
In 7.058702523149999 7.662814413750001 2.726762444015
In 4.38627668211 5.979129779670001 2.7479651494549997
In 9.716335732109998 5.95573493967 2.717257014455
Ga 1.04399409665 3.1486180079500006 7.644172896565
In 6.37405314665 3.1252231679500007 7.613464761565
O 4.49548142493 6.108599170050001 8.645947499465
O 9.82554047493 6.085204330050001 8.615239364465
O 0.9467210827100001 3.02629134913 3.809793507315
O 6.27678013271 3.00289650913 3.779085372315
O 3.60530865503 1.5379708497700002 3.799533414795
O 8.93536770503 1.51457600977 3.768825279795
O 1.83689385261 7.596919669409999 8.656207591985
O 7.166952902609999 7.573524829409999 8.625499456985
O 2.834040101970001 0.09094467429 6.106266279185
O 8.16409915197 0.06754983429 6.075558144185
O 2.5784456469499997 9.02615640025 1.209935278155
O 7.908504696950001 9.00276156025 1.1792271431549999
O 5.22430837447 4.621049571290001 1.209737358435
O 10.554367424470001 4.597654731290001 1.179029223435
O 0.18817737445 4.4960515032499995 6.106464198905
O 5.51823642445 4.4726566632499996 6.075756063905
O 0.11964674707 7.54179549569 1.1513460739749999
O 5.44970579707 7.51840065569 1.1206379389749999
O 5.29193849401 1.5747665047700001 6.009111863685
O 10.62199754401 1.55137166477 5.978403728685
O 2.6330328005699997 2.99016734589 6.019623510524999
O 7.963091850570001 2.9667725058900003 5.988915375525
O 2.7785524405100004 6.126394654570001 1.140834427135
O 8.10861149051 6.102999814570001 1.110126292135
O 5.24992903862 7.60974512326 6.15417254537
O 10.579988088619999 7.58635028326 6.1234644103699996
O 0.16356978162 1.5079624096200002 1.3372405841100001
O 5.49362883162 1.4845675696200002 1.30653244911
O 2.8353593804200004 3.04580772722 1.31654098731
O 8.165418430419999 3.0224128872200002 1.28583285231
O 2.5781394398199997 6.071899805660001 6.17487214217
O 7.908198489819999 6.048504965660001 6.14416400717
O 1.97965137769 1.5702745849400002 8.413192249145
O 7.30971042769 1.5468797449400002 8.382484114144999
O 3.4595119159900003 7.562796559220001 3.5169140412149997
O 8.789570965989999 7.539401719220001 3.486205906215
O 0.7881199685900001 6.116100814420001 3.5372991951149997
O 6.118179018589999 6.092705974420001 3.506591060115
O 4.651043325090001 3.0169703297400003 8.392807095244999
O 9.981102375089998 2.9935754897400004 8.362098960245
O 4.50662269694 0.01987978804 8.73487516185
O 9.83668174694 -0.00351505196 8.70416702685
O 0.9363677550600001 9.115482420960001 3.85714151215
O 6.266426805059999 9.092087580960001 3.82643337715
O 3.5815942403400003 4.564536275520001 3.85744670107
O 8.91165329034 4.541141435520001 3.82673856607
O 1.86139621166 4.57082593348 8.73456997293
O 7.191455261660001 4.54743109348 8.70386183793
