80

Ga 10.80236148638 5.104375e-06 1.18754588184
Al 10.802352176380001 3.087978244375 1.18756107684
Ga 23.023190106380003 1.1529375e-05 1.17928604184
Al 23.023180796380004 3.087984669375 1.17930123684
Ga -0.07602910638 -2.269375e-06 4.633726358160001
Ga -0.07603841638 3.087970870625 4.63374155316
Al 12.14479951362 4.155625e-06 4.6254665181600005
Al 12.144790203620001 3.087977295625 4.62548171316
Ga 4.69194252138 1.543988461875 1.19168339934
Ga 4.691933211379999 4.631961601875001 1.1916985943399998
Ga 16.912771141380002 1.543994886875 1.18342355934
Al 16.912761831380003 4.6319680268750005 1.18343875434
Al 6.034380548620001 1.543987513125 4.62960403566
Ga 6.03437123862 4.631960653125001 4.62961923066
Al 18.25520916862 1.543993938125 4.62134419566
Ga 18.25519985862 4.631967078125 4.62135939066
In 9.25248779378 1.5439895106850001 3.99212007894
In 9.25247848378 4.631962650685 3.9921352739400002
Al 21.473316413779997 1.543995935685 3.98386023894
Al 21.473307103779998 4.631969075685 3.98387543394
In 1.4738352762200002 1.5439864643149999 1.82916735606
Ga 1.4738259662200002 4.631959604315 1.82918255106
Al 13.694663896220002 1.543992889315 1.82090751606
Al 13.69465458622 4.6319660293150005 1.82092271106
In 3.1420781387800005 -2.71815e-07 3.9962424014400004
In 3.1420688287800003 3.087972868185 3.9962575964400004
Al 15.36290675878 6.153185e-06 3.9879825614400004
Ga 15.36289744878 3.087979293185 3.9879977564400004
Al 7.584254241220001 3.106815e-06 1.82502983856
In 7.5842449312200015 3.087976246815 1.82504503356
In 19.80508286122 9.531815e-06 1.8167699985599999
Ga 19.80507355122 3.087982671815 1.81678519356
O 9.453530411860001 3.744645e-06 2.54067463128
O 9.453521101860002 3.0879768846449998 2.54068982628
O 21.67435903186 1.0169645e-05 2.53241479128
O 21.67434972186 3.087983309645 2.53242998628
O 1.2728019681400002 -9.09645e-07 3.2805976087199995
O 1.2727926581400004 3.087972230355 3.2806128037199995
O 13.493630588140002 5.515355e-06 3.2723377687199995
O 13.493621278140003 3.087978655355 3.2723529637199995
O 3.34311144686 1.543987102145 2.54481214878
O 3.3431021368600002 4.631960242145 2.5448273437799998
O 15.563940066859999 1.543993527145 2.53655230878
O 15.56393075686 4.631966667145 2.5365675037799997
O 7.383211623140002 1.543988872855 3.2764752862199997
O 7.383202313140001 4.631962012855 3.2764904812199998
O 19.60404024314 1.543995297855 3.2682154462199997
O 19.60403093314 4.631968437855 3.2682306412199997
O 8.874290244100001 2.169775e-06 5.1813865848
O 8.874280934100002 3.0879753097749996 5.1814017798
O 21.0951188641 8.594775e-06 5.1731267448
O 21.095109554100002 3.0879817347749996 5.1731419398
O 1.8520421359000003 6.65225e-07 0.6398856552
O 1.8520328259000005 3.087973805225 0.6399008502
O 14.0728707559 7.090225e-06 0.6316258151999999
O 14.072861445900001 3.087980230225 0.6316410102
O 2.763871279100001 1.543985527275 5.1855241023
O 2.7638619691000006 4.631958667275001 5.1855392973
O 14.9846998991 1.543991952275 5.1772642623
O 14.984690589100001 4.631965092275 5.1772794573
O 7.962451790900001 1.543990447725 0.6357633327
O 7.9624424809 4.631963587725 0.6357785277
O 20.1832804109 1.543996872725 0.6275034926999999
O 20.1832711009 4.6319700127250005 0.6275186877
O -1.06153204684 1.5439839283299999 4.3313168935799995
O -1.0615413568399998 4.63195706833 4.33133208858
O 11.15929657316 1.54399035333 4.3230570535799995
O 11.15928726316 4.63196349333 4.32307224858
O 11.787855116840001 1.54399204667 1.48997054142
O 11.78784580684 4.6319651866700005 1.48998573642
O 24.00868373684 1.54399847167 1.48171070142
O 24.00867442684 4.63197161167 1.48172589642
O 5.048886918160001 5.7083e-07 4.32717937608
O 5.048877608160001 3.08797371083 4.32719457108
O 17.26971553816 6.99583e-06 4.31891953608
O 17.26970622816 3.08798013583 4.31893473108
O 5.67744546184 2.26417e-06 1.49409286392
O 5.677436151839999 3.08797540417 1.49410805892
O 17.89827408184 8.68917e-06 1.48583302392
O 17.89826477184 3.08798182917 1.48584821892
