80

Al 10.66750775734 5.72275e-07 1.185444944945
Al 10.667496802339999 3.0260455622749998 1.185479639945
Al 22.73421841734 1.497275e-06 1.203170299945
Ga 22.73420746234 3.026046487275 1.2032049949449999
Al -0.06973481734 -9.57275e-07 4.536341860055001
In -0.0697457723400001 3.0260440327249998 4.536376555055001
In 11.99697584266 -3.2275e-08 4.554067215055
Al 11.996964887659999 3.026044957725 4.554101910055
Al 4.63414694984 1.513022604775 1.176599614945
Ga 4.63413599484 4.539067594775 1.176634309945
In 16.70085760984 1.5130235297749999 1.194324969945
Al 16.70084665484 4.539068519775 1.194359664945
Al 5.963615035159999 1.5130220002249999 4.545221885055001
Ga 5.96360408016 4.539066990225001 4.545256580055001
Al 18.030325695160002 1.513022925225 4.562947240055
Al 18.03031474016 4.539067915225 4.562981935055
Al 9.140406911639998 1.513022374265 3.9279105257550007
Ga 9.140395956639997 4.539067364265001 3.9279452207550003
Al 21.20711757164 1.513023299265 3.9456358807550003
Al 21.20710661664 4.539068289265001 3.9456705757550004
Al 1.45735507336 1.5130222307349999 1.7939109742450001
Al 1.45734411836 4.539067220735 1.793945669245
Al 13.52406573336 1.513023155735 1.8116363292450002
Al 13.52405477836 4.539068145735 1.811671024245
Al 3.1070570591400006 -5.83235e-07 3.9190305007550004
In 3.107046104140001 3.0260444067649996 3.9190651957550005
Al 15.173767719139997 3.41765e-07 3.9367558557550004
Al 15.173756764139997 3.026045331765 3.9367905507550005
Al 7.49071588086 1.98235e-07 1.802756304245
Al 7.49070492586 3.026045188235 1.802790999245
In 19.55742654086 1.123235e-06 1.8204816592450002
Al 19.55741558586 3.026046113235 1.820516354245
O 9.33724393218 1.92505e-07 2.5073337222350003
O 9.33723297718 3.026045182505 2.507368417235
O 21.40395459218 1.117505e-06 2.525059077235
O 21.40394363718 3.026046107505 2.525093772235
O 1.2605290078199998 -5.77505e-07 3.214453082765
O 1.2605180528199997 3.0260444124949997 3.2144877777649996
O 13.32723966782 3.47495e-07 3.2321784377649996
O 13.32722871282 3.026045337495 3.2322131327649997
O 3.3038831246800004 1.5130222250049998 2.498488392235
O 3.3038721696800004 4.539067215005 2.498523087235
O 15.370593784679999 1.513023150005 2.516213747235
O 15.370582829679998 4.539068140005 2.516248442235
O 7.2938788603199995 1.513022379995 3.223333107765
O 7.293867905319999 4.539067369995001 3.223367802765
O 19.36058952032 1.513023304995 3.241058462765
O 19.36057856532 4.539068294995 3.241093157765
O 8.7683488303 -3.93525e-07 5.091415361925001
O 8.7683378753 3.026044596475 5.091450056925
O 20.835059490299997 5.31475e-07 5.109140716925
O 20.835048535299997 3.026045521475 5.109175411925
O 1.8294241097000001 8.525e-09 0.630371443075
O 1.8294131547 3.026044998525 0.630406138075
O 13.8961347697 9.33525e-07 0.648096798075
O 13.8961238147 3.026045923525 0.6481314930750001
O 2.7349880228 1.513021638975 5.082570031925
O 2.7349770678000005 4.539066628975001 5.082604726925
O 14.8016986828 1.513022563975 5.1002953869250005
O 14.8016877278 4.539067553975 5.100330081925001
O 7.8627739622 1.513022966025 0.639251468075
O 7.8627630072 4.539067956025 0.6392861630750001
O 19.9294846222 1.513023891025 0.656976823075
O 19.9294736672 4.539068881025 0.657011518075
O -1.04315936082 1.5130215253700001 4.23820590627
O -1.04317031582 4.539066515370001 4.23824060127
O 11.02355129918 1.51302245037 4.25593126127
O 11.023540344179999 4.53906744037 4.25596595627
O 11.640921345819999 1.51302307963 1.4836155937300002
O 11.640910390819998 4.53906806963 1.48365028873
O 23.70763200582 1.5130240046299999 1.50134094873
O 23.70762105082 4.53906899463 1.50137564373
O 4.99020144668 -5.0713e-07 4.24705123627
O 4.990190491680001 3.0260444828699997 4.24708593127
O 17.056912106680002 4.1787e-07 4.26477659127
O 17.05690115168 3.02604540787 4.2648112862700005
O 5.60757149332 1.2213e-07 1.4747355687300001
O 5.6075605383200005 3.0260451121300003 1.4747702637300002
O 17.67428215332 1.04713e-06 1.4924609237300002
O 17.67427119832 3.02604603713 1.49249561873
