20

In 10.813071378330001 2.86279e-06 1.2315475916899998
Al -0.1857938083300003 -5.07279e-06 4.86586685831
Ga 4.680625643329999 1.59444823279 1.2446332816899999
Al 5.946646076669999 1.59444500721 4.85278440831
In 9.191366759119997 1.59444693899 4.178771871
In 1.43590496088 1.59444630101 1.918645819
In 3.0589268741200004 -3.14101e-06 4.191854321
Ga 7.5683506958799995 9.3101e-07 1.905560129
O 8.7837083282 -2.22595e-06 5.4281381082
O 1.8435692418 1.595e-08 0.6692763418
O 2.6512625931999994 1.59444314405 5.4412237982
O 7.976009126799999 1.59445009595 0.6561938918
O 9.427425689889999 8.7113e-07 2.65436454005
O 1.1998518801099998 -3.08113e-06 3.4430499099499996
O 3.294979954889999 1.59444624113 2.66745023005
O 7.332291765109999 1.59444699887 3.4299674599499994
O -1.16768616367 1.59444260228 4.54971881181
O 11.79495788367 1.59445063772 1.54769887819
O 4.96475957133 -2.76772e-06 4.5366331218100004
O 5.662517998669999 5.5772e-07 1.5607813281899998
