80

Al -0.042533185 -0.0431654775 6.032495445
Ga -0.127599555 -0.1294964325 18.097486335
In 4.737953449999999 2.8466829675 6.085364405
Ga 4.652887079999999 2.7603520125000003 18.150355295
In 3.1818508 0.0217907675 6.05533023
In 3.0967844299999996 -0.0645401875 18.12032112
In 1.5135694649999998 2.7817267224999997 6.06252962
Ga 1.4285030949999997 2.6953957675 18.12752051
In 0.0 0.0 0.0
Ga -0.08506637 -0.086330955 12.06499089
In 4.780486634999999 2.889848445 0.05286896
In 4.695420264999999 2.80351749 12.11785985
Al 3.224383985 0.064956245 0.022834785
Ga 3.139317615 -0.02137471 12.087825675000001
Ga 1.5561026499999997 2.8248922 0.030034175
In 1.4710362799999996 2.7385612449999996 12.095025065000002
Al -0.0586557482104999 1.8398404853114998 3.0286576697145002
Al -0.1437221182105 1.7535095303114998 15.0936485597145
Ga -1.7269370832105002 4.5997764403115005 3.0358570597145
Al -1.8120034532105003 4.513445485311501 15.1008479497145
Al 3.1657282367894997 1.9047967303114999 3.0514924547145004
Al 3.0806618667895 1.8184657753114999 15.116483344714501
Al 1.4974469017894991 4.6647326853115 3.0586918447145
Al 1.412380531789499 4.5784017303115006 15.123682734714501
In 1.5296920282104998 0.8987207596884998 9.0663673952855
Al 1.4446256582105 0.8123898046884999 21.1313582852855
Al -0.1385893067895002 3.6586567146885 9.0735667852855
Al -0.2236556767895002 3.5723257596885 21.1385576752855
Ga 4.7540760132105 0.9636770046884998 9.0892021802855
Ga 4.6690096432105 0.8773460496884998 21.1541930702855
Al 3.0857946782104997 3.7236129596885 9.0964015702855
Al 3.0007283082104994 3.6372820046884997 21.1613924602855
O -0.0725981262534999 1.825690841787 5.0061096765855
O -0.1576644962534999 1.739359886787 17.0711005665855
O -1.7408794612535003 4.585626796787 5.0133090665855
O -1.8259458312535002 4.499295841787001 17.0782999565855
O 3.1517858587464995 1.890647086787 5.028944461585501
O 3.0667194887464997 1.804316131787 17.0939353515855
O 1.483504523746499 4.650583041787 5.0361438515855
O 1.3984381537464992 4.5642520867870005 17.1011347415855
O 1.5436344062535 0.912870403213 7.0889153884145
O 1.4585680362534998 0.8265394482129998 19.153906278414503
O -0.1246469287465002 3.672806358213 7.0961147784145
O -0.2097132987465002 3.586475403213 19.161105668414503
O 4.7680183912534995 0.9778266482129999 7.111750173414499
O 4.6829520212535 0.8914956932129998 19.1767410634145
O 3.0997370562534994 3.737762603213 7.1189495634145
O 3.0146706862534995 3.651431648213 19.1839404534145
O 1.5157496501674999 0.8845711161639999 11.043819402156501
O 1.4306832801674998 0.7982401611639999 23.1088102921565
O -0.1525316848325002 3.644507071164 11.051018792156501
O -0.2375980548325002 3.558176116164 23.116009682156502
O 4.7401336351675 0.9495273611639998 11.066654187156502
O 4.655067265167499 0.8631964061639998 23.1316450771565
O 3.0718523001674995 3.709463316164 11.073853577156502
O 2.9867859301674997 3.623132361164 23.1388444671565
O -0.0447133701674999 1.853990128836 1.0512056628435
O -0.1297797401675 1.767659173836 13.116196552843501
O -1.7129947051675003 4.613926083836001 1.0584050528435
O -1.7980610751675004 4.527595128836 13.123395942843501
O 3.1796706148325 1.918946373836 1.0740404478435
O 3.0946042448324995 1.832615418836 13.139031337843502
O 1.511389279832499 4.678882328836 1.0812398378435
O 1.426322909832499 4.592551373836 13.146230727843502
O -0.0212665925 -0.02158273875 3.0162477225
O -0.1063329625 -0.10791369375 15.081238612500002
O 4.759220042499999 2.8682657062500003 3.0691166825000002
O 4.674153672499999 2.78193475125 15.134107572500001
O 3.2031173925 0.04337350625 3.0390825075000003
O 3.1180510225 -0.04295744875 15.1040733975
O 1.5348360574999997 2.80330946125 3.0462818975
O 1.4497696874999997 2.71697850625 15.1112727875
O -0.0637997775 -0.06474821625 9.0487431675
O -0.1488661475 -0.15107917125 21.1137340575
O 4.716686857499999 2.82510022875 9.101612127500001
O 4.631620487499999 2.73876927375 21.1666030175
O 3.1605842075 0.00020802875 9.0715779525
O 3.0755178374999996 -0.08612292625 21.1365688425
O 1.4923028724999996 2.76014398375 9.0787773425
O 1.4072365024999998 2.6738130287499997 21.1437682325
