40

Ga 8.23367352159579 -0.0071610141561068 13.609889693111997
Al 6.650357694654209 0.0159722166561068 2.326046005638004
Ga 5.0009805 0.01650021 -0.03918758
Al 9.14602474965421 1.485319646656107 2.310259375638004
Ga 4.14504424965421 1.468819436656107 2.349446955638004
Ga 4.96134373875 0.0029370675 5.3119785662500005
Ga 1.6361649409042096 -0.0050490408438932 4.148955634388004
Al 8.29973479034579 0.0154442233438932 4.691279449361996
Ga 2.44281804 1.45126324 7.119101565
Al 7.44379854 1.46776345 7.079913985
Al 8.26009802909579 0.0018810808438932 10.042445595611996
Ga 4.934919231249999 -0.0061050275 8.87942266375
Ga 3.2459052753457898 -0.0191401766561068 11.865355224361997
Ga 1.5965281796542097 -0.0186121833438932 9.500121780638004
Ga 5.7415723303457895 1.4502072533438932 11.849568594361996
Al 10.74255283034579 1.4667074633438932 11.810381014361996
O 3.3916824074500003 0.0081458305 1.18628343875
O 1.5706321623042097 -0.0274734364438932 12.996216996188005
O 5.787522780250001 1.4187193633 1.1711282739500002
O 10.78811742465 1.5521073592999999 1.13224526675
O 8.32563080769579 0.0243054764438932 1.195184233811996
O 6.50458056255 -0.0113137905 13.005117791250001
O 9.100074299750002 1.5168075367 12.98869969605
O 4.09947965535 1.3834195407 13.027582703250001
O 6.690436697795789 0.0070898438438932 5.916750468111996
O 4.97508448265 0.0076389569 3.45690763555
O 9.08627707059579 1.4176633766438933 5.901595303311996
O 4.08491071499579 1.5180509526438932 5.941087456111996
O 1.6224241970042097 -0.0097509302438932 6.0040265650880045
O 9.90903288289579 0.0237986028438932 3.465808430611996
O 12.50452662009579 1.5519199300438933 3.4493903354119957
O 7.503931975695791 1.4185319340438933 3.488273342611996
O -0.0127699128957901 -0.0269665628438932 10.725592799388004
O 8.27383877299579 0.0065829702438932 8.187374664911996
O 2.38307045990421 1.3836069699561069 10.710437634588004
O 7.383665104304211 1.5169949659561068 10.671554627388005
O 4.92117848735 -0.0108069169 10.73449359445
O 3.20582627220421 -0.0102578038438932 8.274650761888005
O 5.80132000940421 1.5178635233561069 8.258232666688006
O 10.80268636500421 1.4174759473561067 8.218740513888005
