80

In 6.925194414999999 2.308596045 6.894731375
Al 2.305892555 6.90367171 6.916841440000001
Ga 6.89992422 6.924344905 2.296005735
Al 6.9132905099999995 6.91569114 6.903247950000001
Al 2.292526265 6.912325475 2.3095992250000004
Al 6.9118281249999995 2.31724981 2.2874891600000002
Al 2.31779646 2.2965766149999998 6.908324865000001
Al 2.30443017 2.30523038 2.30108265
Al 6.913368783039999 4.30318800854 4.5947894279
Al 2.28070063304 8.906917438539999 0.0096572779
Al 6.898383561959999 4.93840670646 -0.0112945329
Al 4.60199947978 6.91459676352 4.293131116880001
Al 0.01987171978 2.28682847352 8.905450246880001
Al -0.00358065978 6.90140042148 4.93330954812
Al 4.30224042406 4.60531655626 6.906710764820001
Al 8.908175994059999 0.01889465626 2.27735848482
In 4.9407504509399995 -0.00014389626 6.89634547518
Al 2.3043518969599996 4.917733511460001 4.6095411721
In 6.91028746696 0.33131161146 -0.0198111079
Al 2.29260453804 4.299822343540001 0.0011407029
Ga 4.615721200219999 2.30632475648 4.911199483120001
Al -0.01694694978 6.91005418648 0.32606733312
In 0.00650542978 2.29548223852 4.298208031880001
In 4.91548025594 4.61560496374 2.2976198351800003
Al 0.33335249594 -0.01216332626 6.90993896518
Al 4.30077803906 0.00687522626 2.29095197482
Al 2.3162558019599997 0.3106384164600001 4.6010245971
Al 4.60235491022 2.31497852148 0.3039572681200001
Al 0.30808230094 4.60358553374 2.3112133251800002
Al 6.901464878039999 8.91028310354 4.6033060029
Al 4.6153657697799995 6.90594299852 8.900373331880001
Al 8.909638379059999 4.61733598626 6.893117274820001
O 5.721401182969999 3.60629871781 6.034505820130001
O 3.50297198461 8.204370670770002 7.7818703431700005
O 8.098691726990001 5.629896047830001 1.4239082170300001
O 5.72123680543 5.611738363590001 7.77054211967
O 6.0405977135399995 5.7218001657299995 3.5955893062500004
O 7.7920595090199996 3.5062600608100003 8.19363241301
O 1.4328374303799998 8.10169714359 5.62236902099
O 7.778807047059999 5.7225464298699995 5.59923575975
O 3.6039414770500002 6.043177290300001 5.71352398382
O 8.200447744569999 7.791618283219999 3.4916564628200004
O 5.631621361229999 1.43682270898 8.09484659898
O 5.608291117149999 7.780685517499999 5.71079945438
O 3.4963194970299996 5.6146228021899995 3.16982477987
O 5.714748695389999 1.01655084923 1.42246025683
O 1.11902895301 3.59102547217 7.78042238297
O 3.49648387457 3.60918315641 1.43378848033
O 3.17712296646 3.49912135427 5.6087412937500005
O 1.4256611709799998 5.714661459189999 1.01069818699
O 7.784883249619999 1.1192243764099998 3.5819615790100006
O 1.4389136329399999 3.4983750901299997 3.6050948402500005
O 5.613779202949999 3.1777442296999996 3.4908066161800004
O 1.0172729354299999 1.42930323678 5.7126741371800005
O 3.58609931877 7.78409881102 1.10948400102
O 3.60942956285 1.4402360025 3.4935311456200004
O 1.08873303297 8.21002814781 1.4493736701300002
O 8.108907554610001 3.61794877077 3.15251806317
O 3.5165639669899997 1.0021277578299999 6.0362273470300005
O 1.11237646543 1.00127760359 3.16837681967
O 1.4584699535399999 1.0940318757299998 8.207908436250001
O 3.1593913590199993 8.109989490810001 3.6085002630100003
O 6.03877300038 3.51527524359 0.99301674099
O 3.16994670706 1.11208566987 0.9970704597500001
O 8.20987704705 1.4567553903000001 1.08417170382
O 3.6183199845700003 3.1638499932199995 8.103975592820001
O 0.9989532112299998 6.040552138980001 3.50971444898
O 0.9994307771499998 3.1702247574999998 1.10863415438
O 8.128987647030002 1.01089337219 7.7549569298700005
O 1.10881312539 5.60297274923 6.051812536830001
O 5.70115671301 8.218793762170002 3.16810325297
O 8.10534421457 8.21964391641 6.035953780330001
O 7.759250726459999 8.12688964427 0.99642216375
O 6.05832932098 1.1109320291899998 5.595830336990001
O 3.1789476796199994 5.7056462764099996 8.211313859010001
O 6.04777397294 8.108835850130001 8.20726014025
O 1.0078436329499998 7.7641661296999995 8.120158896180001
O 5.59940069543 6.057071526780001 1.1003550071800001
O 8.21876746877 3.1803693810199998 5.69461615102
O 8.21828990285 6.0506967625 8.09569644562
