40

Al 8.008698807033927 -0.0631581680497499 13.145172585618187
Al 4.917854685 -0.073488275 -0.104105805
Al 8.998447165466073 1.30113387304975 2.0994411806318127
Al 4.0805924804660725 1.37462214804975 2.203546985631813
Ga 4.8443968275 -0.050275205 5.10755248875
Ga 1.5821510379660724 -0.0064414819502501 4.018810116881813
Al -0.09794381 0.03095076 6.948877725
Al 8.131128569533926 -0.1018466180497499 4.459075429368187
Al 2.37601168 1.41975208 6.870834025
Al 7.2938663649999995 1.346263805 6.76672822
Ga 8.057670712033927 -0.0786335480497499 9.670733723118188
Al 4.7954249225 -0.034799825 8.58199135125
Al 3.115330074533927 0.0025924169502501 11.512058959368186
Al 1.5086931804660724 0.0167715880497499 9.230468410631813
Al 5.589285564533927 1.3913937369502503 11.434015259368188
Al 10.507140249533926 1.3179054619502502 11.329909454368186
O 3.3274907381000003 -0.0447103978 1.11051726585
O 1.4607007135660723 0.0319374604497499 12.635418495881813
O 5.7024880085 1.2885388694000002 1.03559531385
O 10.6215449453 1.329094231 0.92941024505
O 8.179121036433926 -0.1170124904497499 1.0541253441181873
O 6.3123310119000005 -0.0403646322 12.579026574150001
O 8.8852447215 1.4039887406 12.497861126150001
O 3.9661877846999993 1.3634333790000002 12.604046194950001
O 6.540764622633927 -0.0730687408497499 5.673698500218188
O 4.8698622181 -0.0583224026 3.3008442802499998
O 8.915761893033928 1.2601805263502501 5.598776548218187
O 3.9991094598339276 1.4477124379502502 5.700803089418187
O 1.5566856473660724 0.0016057156497499 5.825518325381813
O 9.721492516433928 -0.1306244952497499 3.244452358518187
O 12.294406226033928 1.31372887755025 3.163286910518187
O 7.375349289233927 1.2731735159502502 3.2694719793181872
O -0.0816707664339275 0.0455494652497499 10.445091481481812
O 8.083136102633926 -0.0866807456497499 7.864025514618187
O 2.2933265039660724 1.37879873244975 10.370169529481812
O 7.2123834407660725 1.4193540940497498 10.263984460681813
O 4.7699595319 -0.0267526274 10.38869955975
O 3.099057127366072 -0.0120062891502501 8.015845339781814
O 5.6719708369660715 1.43234708364975 7.934679891781814
O 10.588623270166071 1.24481517204975 7.832653350581814
