80

In 1.74835018965 7.9330739143799995 6.871398152369999
Al 7.20337469965 7.9262006843799995 6.842674842369999
In 3.76511970811 1.38767523274 1.92841496429
Al 9.22014421811 1.3808020027399999 1.89969165429
In 1.0399175554100002 3.2679646648999996 1.93502451781
In 6.49494206541 3.2610914348999995 1.90630120781
In 4.4735523423500005 6.05278448222 6.864788598849999
In 9.92857685235 6.04591125222 6.8360652888499995
Al 0.98397437399 6.11247837347 -0.03039336741
In 6.438998883990001 6.10560514347 -0.05911667741
In 4.5087778060099994 3.19228521653 4.9224170124099995
In 9.96380231601 3.18541198653 4.893693702409999
In 1.7791612994100001 1.4861133248099998 4.94383998757
In 7.2341858094100004 1.4792400948099997 4.9151166775699995
In 3.7661739205900004 7.8592227451899985 9.86643104743
Al 9.221198430590002 7.8523495151899985 9.83770773743
In 0.9693176591400001 0.31811772228 9.90235232433
In 6.424342169139999 0.31124449228 9.87362901433
In 4.57591239478 9.027137202759999 4.88808221589
In 10.030936904780003 9.020263972759999 4.85935890589
In 1.8433682337800001 4.94237956256 4.91932963649
In 7.29839274378 4.93550633256 4.8906063264899995
Al 3.7018618201400004 4.40287536248 9.87110490373
In 9.156886330139999 4.39600213248 9.84238159373
In 3.7798701173800002 1.48596442027 7.7799600803999995
In 9.234894627380001 1.4790911902700001 7.7512367704
In 1.74306472758 7.842087773249999 2.8051375664599996
Al 7.19808923758 7.835214543249999 2.7764142564599994
Al 4.46844985868 6.110459950369999 2.7979139850999997
In 9.92347436868 6.103586720369999 2.7691906750999995
Al 1.05448498628 3.21759224315 7.78718366176
Al 6.509509496280001 3.21071901315 7.75846035176
O 4.57682275786 6.246446854989999 8.80750925622
O 10.031847267860002 6.239573624989999 8.77878594622
O 0.9572596915800001 3.09020670429 3.88025683732
O 6.41228420158 3.08333347429 3.85153352732
O 3.682919290280001 1.58157129533 3.8721122142
O 9.13794380028 1.57469806533 3.8433889042
O 1.8511631591600002 7.755082263949999 8.81565387934
O 7.30618766916 7.748209033949999 8.786930569339999
O 2.89706552526 0.10553379939 6.2231524798999995
O 8.352090035259998 0.09866056939 6.194429169899999
O 2.60925307906 9.209697490449999 1.22777899172
O 8.064277589060001 9.202824260449999 1.19905568172
O 5.33125310976 4.72782989589 1.2319149254
O 10.786277619760002 4.72095666589 1.2031916154
O 0.17506549456 4.587401393949999 6.21901654622
O 5.6300900045599995 4.580528163949999 6.19029323622
O 0.09764561154 7.688753101289999 1.1679395205599998
O 5.55267012154 7.681879871289999 1.1392162105599999
O 5.40783166414 1.62582902887 6.124299992819999
O 10.862856174140001 1.6189557988699999 6.09557668282
O 2.6820805762399997 3.06013363319 6.1327516298599996
O 8.13710508624 3.05326040319 6.104028319859999
O 2.82339669944 6.254448496969999 1.15948788352
O 8.27842120944 6.247575266969999 1.1307645735199998
O 5.34538098849 7.777482196979999 6.2678781996
O 10.80040549849 7.770608966979999 6.2391548896
O 0.16188411055 1.5384793975000002 1.36158172504
O 5.61690862055 1.5316061675000001 1.33285841504
O 2.8913405110500006 3.1145723811 1.3406960242400001
O 8.346365021050001 3.1076991511000003 1.31197271424
O 2.6159245879900004 6.201389213380001 6.288763900399999
O 8.07094909799 6.1945159833800005 6.2600405904
O 2.01674490625 1.61218413025 8.57230907903
O 7.471769416250001 1.60531090025 8.543585769029999
O 3.51449805903 7.722278515109999 3.57987165545
O 8.969522569030001 7.715405285109999 3.5511483454499997
O 0.7851560200300001 6.239099037310001 3.6003735888499997
O 6.240180530030001 6.232225807310001 3.5716502788499995
O 4.746086945250001 3.09536360805 8.551807145629999
O 10.201111455249999 3.08849037805 8.523083835629999
O 4.607736662510001 0.0400605623 8.9023715871
O 10.062761172510001 0.0331873323 8.8736482771
O 0.92708194949 9.2971610117 3.9242499699
O 6.38210645949 9.2902877817 3.8955266599
O 3.6488990017900007 4.66663180786 3.92899993142
O 9.103923511789999 4.65975857786 3.90027662142
O 1.8859196102100002 4.67058976614 8.89762162558
O 7.3409441202100005 4.66371653614 8.86889831558
