10

Ga -0.07601209 -0.039393825 5.88307983
Al 0.0 0.0 0.0
Al -0.1195636150939999 1.752374882598 2.9517994222799997
Al 1.380028855094 0.8976621674019999 8.85009583772
O -0.038006045 -0.0196969125 2.941539915
O -0.114018135 -0.0590907375 8.824619745
O -0.1444803781959999 1.739461586763 4.880272990553999
O 1.404945618196 0.9105754632369999 6.921622269445999
O 1.3551120919920001 0.8847488715669999 10.778569405994
O -0.0946468519919999 1.765288178433 1.023325854006
