80

Ga 1.7699614725200001 7.96010045178 6.88845874725
Ga 7.238689932520002 7.94481526178 6.85578193225
Ga 3.77813079106 1.3872105385199998 1.9309808110100002
Ga 9.24685925106 1.3719253485199998 1.89830399601
Ga 1.0489832534799999 3.2784546353399997 1.9393128273100002
Ga 6.51771171348 3.2631694453399995 1.9066360123100001
Ga 4.499109010100001 6.068856354959999 6.88012673095
Ga 9.967837470100001 6.053571164959999 6.8474499159499995
In 0.9958953825200001 6.1329559717699995 -0.031929374685
In 6.464623842520001 6.117670781769999 -0.064606189685
In 4.5286015724799995 3.19767997323 4.932632604685001
Ga 9.99733003248 3.18239478323 4.899955789685
In 1.7894855038400004 1.4895667447899998 4.956263962585
Ga 7.25821396384 1.47428155479 4.923587147585001
Ga 3.7948980211600007 7.883391650209999 9.890470557415
In 9.26362648116 7.868106460209999 9.857793742415
In 0.9793478210100001 0.3194550129299999 9.92940648579
In 6.4480762810100005 0.3041698229299999 9.89672967079
In 4.60491593085 9.053418737169999 4.89743597163
In 10.073644390850001 9.038133547169998 4.86475915663
In 1.8591886084500002 4.958166971769999 4.931214043130001
In 7.327917068450001 4.942881781769999 4.89853722813
In 3.7250751434100002 4.414706778329999 9.89562841429
In 9.19380360341 4.399421588329999 9.86295159929
In 3.7972642836600006 1.48682471887 7.7989202177550006
In 9.265992743660002 1.47153952887 7.766243402755001
In 1.7616075625200003 7.868104312429999 2.8108049727049997
In 7.23033602252 7.85281912243 2.778128157705
In 4.49116830346 6.126056374169999 2.801838786805
In 9.95989676346 6.11077118417 2.769161971805
In 1.06770354272 3.2288726571299997 7.807886403655001
Ga 6.536432002720002 3.21358746713 7.775209588655001
O 4.60433166584 6.263386905129999 8.828200645935
O 10.073060125839998 6.24810171513 8.795523830935
O 0.9672361331800001 3.1005144855699993 3.8900831780050003
O 6.4359645931800005 3.0852292955699996 3.8574063630050004
O 3.6974166791600007 1.58226078515 3.8801657377050005
O 9.166145139160001 1.56697559515 3.847488922705
O 1.8741511198600003 7.781640605549999 8.838118086235001
O 7.34287957986 7.76635541555 8.805441271235
O 2.90898352092 0.10251893549 6.238541633135
O 8.37771198092 0.08723374549 6.205864818135001
O 2.63096416914 9.239036201609998 1.2282376696850001
O 8.09969262914 9.22375101161 1.195560854685
O 5.35288064792 4.73685932999 1.2310036213850002
O 10.82160910792 4.7215741399899995 1.198326806385
O 0.18706704214 4.604695807109999 6.235775681435
O 5.65579550214 4.589410617109999 6.203098866435
O 0.11063465054 7.716468184169999 1.170200992665
O 5.57936311054 7.701182994169999 1.137524177665
O 5.4283548544 1.6244097937299997 6.137441809515001
O 10.897083314400001 1.6091246037299998 6.104764994515
O 2.69796770674 3.06806541487 6.147676334615
O 8.166696166740001 3.0527802248700002 6.114999519615
O 2.8410217982 6.2728125630300005 1.159966467565
O 8.309750258200001 6.25752737303 1.127289652565
O 5.37537574513 7.7983190432699985 6.280710372840001
O 10.84410420513 7.783033853269998 6.24803355784
O 0.16564990319 1.54399789793 1.3650974932000002
O 5.634378363190001 1.52871270793 1.3324206782
O 2.90440441889 3.1215644876299997 1.3420210337000003
O 8.373132878890003 3.10627929763 1.3093442187000002
O 2.63662122943 6.220752453569999 6.30378683234
O 8.105349689430001 6.205467263569999 6.271110017340001
O 2.03046302938 1.61634247281 8.594728714925001
O 7.499191489380001 1.60105728281 8.562051899925
O 3.53787089486 7.745273505589999 3.586469419355
O 9.00659935486 7.729988315589999 3.5537926043550003
O 0.7993746312600002 6.26095451499 3.609149522855
O 6.2681030912599995 6.24566932499 3.5764727078550003
O 4.768959292980001 3.10066146341 8.572048611425
O 10.237687752980001 3.08537627341 8.539371796425
O 4.62578073077 0.03463654607 8.92407070806
O 10.094509190770001 0.01935135607 8.89139389306
O 0.9466254802300001 9.32985735893 3.9334575539400003
O 6.41535394023 9.314572168929999 3.9007807389400004
O 3.6681287556500006 4.67848432875 3.9368576752400006
O 9.13685721565 4.6631991387500005 3.9041808602400003
O 1.9042774553500001 4.686009576249999 8.92067058676
O 7.37300591535 4.670724386249999 8.887993771760001
