40

Al 8.140612016546509 -0.0466625056628127 13.25253673017166
Al 4.950733695 -0.009448705 -0.020056105
Ga 9.059837750953493 1.4198200431628125 2.2772214860783397
Al 4.109104055953491 1.4292687481628126 2.29727759107834
Al 4.9074512175 -0.0215457475 5.17879922375
Al 1.6165804484534914 -0.0125583793371873 4.03686882232834
Ga -0.05770997 -0.01612939 6.931807105
Al 8.21274947904651 -0.0265007681628127 4.58777784892166
Al 2.420386145 1.42166539 6.92516765
Ga 7.3711198399999995 1.412216685 6.905111545
Al 8.16946700154651 -0.0385978106628127 9.786633177671659
Ga 4.8785962325000005 -0.0296104425 8.64470277625
Al 3.2043058140465086 -0.0331814531628127 11.53964105892166
Al 1.5732979709534913 -0.0246554218371873 9.23572415107834
Al 5.682401929046509 1.4046133268371872 11.53300160392166
Ga 10.63313562404651 1.3951646218371871 11.51294549892166
O 3.3566882177000004 -0.0091671157 1.16476905645
O 1.5450200856534915 -0.0325588229371873 12.63230963252834
O 5.735660488100001 1.3711158731 1.15839517965
O 10.686612524500001 1.4770686987000001 1.13861016245
O 8.24102736434651 -0.0185973670628127 1.19119236747166
O 6.4293592323 -0.0419890743 12.65873294355
O 9.0065791919 1.4533174968999998 12.65182791035
O 4.0556271555 1.3473646712999998 12.671612927550001
O 6.618704001746509 -0.0262191788628127 5.77260301037166
O 4.922455809700001 -0.0173521061 3.3765293764499997
O 8.997676272146508 1.3540638099371871 5.76622913357166
O 4.047160918546509 1.4789140455371872 5.7865563263716595
O 1.6015758562534914 -0.0167520207371873 5.8391386696283405
O 9.80679495634651 -0.0267823574628127 3.40295268747166
O 12.38401491594651 1.4685242137371874 3.3960476542716598
O 7.433062879546509 1.3625713881371873 3.4158326714716596
O -0.0207475063465085 -0.0243738325371873 10.42054931252834
O 8.18447159374651 -0.0344041692628127 7.98436333037166
O 2.3582247640534915 1.3559091562628125 10.414175435728339
O 7.309176800453492 1.4618619818628127 10.394390418528339
O 4.8635916403 -0.0338040839 10.44697262355
O 3.1673434482534915 -0.0249370111371873 8.05089898962834
O 5.744563407853492 1.4703695600628126 8.043993956428341
O 10.695078761453491 1.3455193244628125 8.023666763628341
