40

Al 0.9053801048999999 5.573917158160001 -0.00691552908
Al 4.074003790099999 2.8856614268400005 4.53901908908
Al 1.6015891965799998 1.3360161676400002 4.547342641879999
Al 3.37779469842 7.1235624173600005 -0.01523908188
Al 3.4043152779099994 1.3220639255300002 7.15557417302
Al 1.5899180831899997 7.141154789530001 2.6033175712199994
Ga 4.049675613109999 5.554513067730001 2.5974532974199995
Al 0.9445577479899999 2.9087056473300006 7.16143844682
Al 1.5860017893099998 7.211626623510001 6.336727132579999
Ga 3.4035749447899994 1.25045058735 1.78310211486
Al 0.9443647473499999 2.9727155299500003 1.78886004146
Ga 4.04521198675 5.489361680910001 6.330969205979999
Al 0.85548693897 0.25726156923 9.09421166808
Al 4.149715365729999 8.208646022389999 4.5255828464
Al 1.6685434525299998 4.48902923039 4.5356079544
Al 3.33665885217 3.97687836123 9.08418656008
O 4.134814790929999 5.659792937630001 8.1153517939
O 0.86490304197 2.8047702157100005 3.5739913354599997
O 3.32548157061 1.42156332511 3.56796754086
O 1.67423626229 7.042999828230001 8.1213755885
O 2.6060064823699998 0.06975411571 5.72009742774
O 2.3800519113299994 8.39146062531 1.16132904434
O 4.82968379037 4.29578931871 1.1574321937399998
O 0.15637460333 4.16542542231 5.723994278339999
O 4.839206874379999 7.0624004934 5.79021247774
O 0.14731718202 1.3989283980400002 1.25512024402
O 2.6192528596199995 2.8299033390400004 1.24688974502
O 2.36727119678 5.6314255524000005 5.79844297674
O 0.10540414381 7.01049191619 1.09610439626
O 4.88024032749 1.4506213577899998 5.63962763166
O 2.4193881326099995 2.76601663799 5.645704599859999
O 2.56625633869 5.695096635990001 1.09002742806
O 1.8087577924399998 1.4392528993800004 7.879455246839999
O 3.1895630523599996 7.0249678027 3.3181691334799996
O 0.7179694575600001 5.678757374700001 3.3263331654799995
O 4.28035138724 2.7854633273800005 7.871291214839999
O 4.146670434719999 -0.00257244386 8.18343370098
O 0.8534095802799999 8.467224380860001 3.63339206702
O 3.30249412684 4.23592985346 3.62960156362
O 1.6975858881600001 4.22872208354 8.18722420438
