80

In 7.6114923975 2.5319319275 7.6206699774999995
In 2.5363510025 7.6099891374999995 7.6206664925
In 7.6158493825 7.611393552499999 2.5466760274999998
In 7.6130111925 7.608563407499999 7.6234339275
In 2.5391891925 7.612819282499999 2.5439085925
In 7.6143305875000005 2.5347620725 2.5439120775
Ga 2.5348322075 2.5333576575 7.6179025424999995
Al 2.5376703975 2.5361878024999998 2.5411446425
In 7.61356761194 4.72645179936 5.0834850539
In 2.54126440694 9.80733915436 0.0067236689
In 7.61661235806 5.41970382564 0.0071030511
In 5.07629318942 7.610883794859999 4.7384517228
In -0.00472398558 2.5328478998599997 9.809678237799998
In -0.00075299442 7.6119246251399995 5.4261233622
In 4.72870880708 5.07105748214 7.620480049419999
In 9.80668839208 -0.00416958286 2.54372563442
In 5.41761579792 -0.00576789714 7.61809247058
In 2.5371139780600003 5.41829941064 5.081093516099999
In 7.61509356306 0.34307234564 0.0043391011
In 2.53974561194 4.7307076743600005 0.0039597189
In 5.07438840058 2.53386741514 5.4261268472
In 0.00208519558 7.614754770139999 0.3493654622
In -0.00188579558 2.53567804486 4.7329203377999995
In 5.42197278292 5.073693727859999 2.54409852058
In 0.34095560792 -0.00434216714 7.61532503558
Ga 4.730028202080001 -0.00274385286 2.54095819942
In 2.5355951830600003 0.34166793064 5.0783295661
In 5.0772265905800005 2.53669756014 0.3493689472
In 0.34531259292 5.07511945786 2.54133108558
Al 7.61508640694 9.80308327936 5.0862490039
In 5.073454999420001 7.6080536498599995 9.8152096228
In 9.80536899708 5.069631752139999 7.623247484419999
O 6.29252262801 3.9644447619200003 6.6662993931
O 3.85617737237 9.040696457800001 8.5765959447
O 8.93588631143 6.1799448525999985 1.5921856415
O 6.29211766319 6.176791952679999 8.576365445699999
O 6.6602420105 6.290939304049999 3.97708285052
O 8.56549903034 3.85078997417 9.053554610079999
O 1.58313414306 8.930979460429999 6.189219113919999
O 8.5678287911 6.28916928635 6.19158985048
O 3.96842157202 6.6559162011 6.300970232569999
O 9.047015160139999 8.56466237718 3.8679331207699996
O 6.17885076106 1.5771914274199998 8.939326992229999
O 6.18241648178 8.564108019299999 6.303216079429999
O 3.85815896199 6.180306448079999 3.4982791768999992
O 6.29450421763 1.1040547522 1.5879826252999998
O 1.21479527857 3.9648063574 8.5723929285
O 3.85856392681 3.96795925732 1.5882131243
O 3.4904395795 3.8538119059500002 6.187495719479999
O 1.58518255966 6.2939612358299994 1.1110239599199998
O 8.56754744694 1.21377174957 3.9753594560799996
O 1.5828527989 3.85558192365 3.97298871952
O 6.18226001798 3.4888350088999993 3.8636083374299997
O 1.10366642986 1.5800888328199998 6.29664544923
O 3.97183082894 8.56755978258 1.22525157777
O 3.96826510822 1.5806431906999998 3.86136249057
O 1.2202194230099999 9.04533211692 1.5895380081
O 8.93415695737 3.9654693928 3.4998415296999994
O 3.85486913643 1.1019089575999996 6.6634121565
O 1.2167768681899997 1.10441634768 3.4940761606999993
O 1.5792248355 1.21290340905 9.04830936552
O 3.49319582534 8.931677329169998 3.9767932250799998
O 6.661113728060001 3.85575239543 1.11246469892
O 3.4924879961 1.21679368135 1.10930056548
O 9.04640115702 1.5806891360999997 1.2242158175699998
O 3.96599798514 3.4866264821799993 8.939159635769999
O 1.10654755606 6.65807878242 3.8625656072299996
O 1.10707568678 3.491732414299999 1.22092679443
O 8.930462166989999 1.0994190930799999 8.5750405619
O 1.2165246326299999 6.179281817199999 6.6647370402999995
O 6.29581245357 9.0428422524 3.5011664134999996
O 8.93390472181 9.04033486232 6.6705024093
O 8.571456754499998 8.931847800949999 1.11626920448
O 6.6574857646600005 1.21307388083 6.187785344919999
O 3.48956786194 6.288998814569999 9.05211387108
O 6.658193593900001 8.92795752865 9.05527800452
O 1.10428043298 8.564062073899999 8.94036275243
O 6.18468360486 6.65812472782 1.22541893423
O 9.044134033939999 3.4866724275799994 6.302012962769999
O 9.043605903220001 6.6530187956999995 8.943651775569998
