80

Al 1.64534196617 7.4365390086600005 6.5017430657199995
Al 6.737256426170001 7.4155963836600005 6.48109844572
Al 3.51598759945 1.29008030928 1.8267862647
Ga 8.60790205945 1.26913768428 1.8061416447
Al 0.9772367881299999 3.06443929416 1.8337598086
Ga 6.069151248129999 3.04349666916 1.8131151886
In 4.184092777490001 5.662180023780001 6.4947695218199994
In 9.276007237490001 5.641237398780001 6.47412490182
Al 0.93492706206 5.741984381145 -0.01460374388
Ga 6.02684152206 5.721041756145 -0.03524836388
Al 4.2115328529400005 2.9778281888550002 4.65621328888
In 9.30344731294 2.9568855638550002 4.6355686688799995
Ga 1.6590113603799999 1.381589938395 4.66958596008
Al 6.75092582038 1.3606473133950001 4.6489413400799995
Ga 3.52518878462 7.355498641604999 9.32968801492
In 8.61710324462 7.334556016604999 9.30904339492
Ga 0.89421437925 0.27570388869 9.344341127909999
Al 5.986128839249999 0.25476126369 9.32369650791
Ga 4.2899102852899995 8.46135013929 4.63621751823
In 9.38182474529 8.44040751429 4.61557289823
Al 1.72825590569 4.6296898881900015 4.65383417023
Ga 6.82017036569 4.6087472631900015 4.63318955023
Al 3.45586875885 4.10736413979 9.32672447591
Ga 8.54778321885 4.08642151479 9.30607985591
Al 3.52326399449 1.3701929205749999 7.34773758786
Al 8.61517845449 1.3492502955749999 7.3270929678600005
Ga 1.64485881253 7.359536079165 2.6651713399599997
Al 6.73677327253 7.338593454165 2.6445267199599996
Al 4.18418042929 5.724890969325001 2.6579325472599997
Ga 9.276094889289999 5.703948344325001 2.6372879272599996
Al 0.98394237773 3.004838030415 7.35497638056
Al 6.075856837730001 2.983895405415 7.3343317605600005
O 4.278765915189999 5.839852440915 8.32818923056
O 9.37068037519 5.818909815915 8.30754461056
O 0.89735782059 2.893539072945 3.66854455642
O 5.989272280590001 2.872596447945 3.64789993642
O 3.43753564551 1.4684647756650002 3.66090789052
O 8.529450105510001 1.4475221506650002 3.64026327052
O 1.73858809027 7.264926738195 8.33582589646
O 6.830502550269999 7.243984113195 8.31518127646
O 2.69731477423 0.078460786875 5.87498329852
O 7.78922923423 0.057518161875 5.85433867852
O 2.4588821201099997 8.645808993705002 1.18090366942
O 7.55079658011 8.624866368705002 1.16025904942
O 4.98764383623 4.426457195625 1.17857197952
O 10.079558296230001 4.405514570625 1.15792735952
O 0.16855305811 4.2978125849549995 5.87731498842
O 5.26046751811 4.2768699599549995 5.85667036842
O 0.11044879091 7.223237173965 1.1182576793799999
O 5.20236325091 7.202294548965 1.09761305938
O 5.04514425975 1.500756190455 5.78790665768
O 10.137058719750002 1.479813565455 5.76726203768
O 2.50468103211 2.855973550215 5.7956759479799995
O 7.59659549211 2.835030925215 5.77503132798
O 2.6509120185499997 5.868019814205001 1.11048838908
O 7.7428264785500005 5.847077189205001 1.08984376908
O 5.00320803076 7.28198371653 5.93628066395
O 10.09512249076 7.26104109153 5.91563604395
O 0.15366818772 1.4425970322300001 1.28804426373
O 5.24558264772 1.42165440723 1.2673996437300001
O 2.70569022552 2.9165856420300003 1.27490368523
O 7.79760468552 2.8956430170300003 1.25425906523
O 2.45118599296 5.807995106730001 5.94942124245
O 7.54310045296 5.787052481730001 5.92877662245
O 1.87692896704 1.4918606593350001 8.09346642006
O 6.9688434270399995 1.4709180343350001 8.07282180006
O 3.29715679632 7.240597949985 3.3979534876999997
O 8.38907125632 7.219655324985 3.3773088677
O 0.7454915119200001 5.853930512085 3.4109282857
O 5.83740597192 5.832987887085 3.3902836656999997
O 4.42859425144 2.878528097235 8.08049162206
O 9.520508711440002 2.857585472235 8.05984700206
O 4.2908423709 0.00677249169 8.40462250663
O 9.3827568309 -0.01417013331 8.38397788663
O 0.8858097281 8.72686088631 3.72311858237
O 5.9777241881 8.70591826131 3.70247396237
O 3.4140006387799997 4.36779521319 3.72105214127
O 8.50591509878 4.34685258819 3.7004075212700003
O 1.76265146022 4.36583816481 8.40668894773
O 6.85456592022 4.34489553981 8.38604432773
