80

In 1.60295905954 7.305170410239999 6.406835807199999
Al 6.60453430454 7.289181675239999 6.391650342199999
Al 3.4505937730399996 1.26972068866 1.80270205706
Al 8.452169018040001 1.25373195366 1.78751659206
Al 0.95530828916 3.01114828338 1.80812483486
Al 5.956883534159999 2.9951595483799998 1.79293936986
Al 4.09824454342 5.5637428155199995 6.4014130294
Al 9.09981978842 5.54775408052 6.3862275643999995
Al 0.9132047768349999 5.643668033815 -0.009786664535
Al 5.914780021835 5.627679298815 -0.024972129535
Ga 4.129445063164999 2.927024266185 4.589823994535
Al 9.131020308164999 2.9110355311850005 4.574638529535
Al 1.6236455916249999 1.3560497534450002 4.599393319435
In 6.625220836624999 1.3400610184450001 4.584207854435
Al 3.446676818375 7.225299396555 9.192574300565
Al 8.448252063375 7.2093106615549996 9.177388835564999
Al 0.86872668789 0.26540066397 9.19984493109
Al 5.8703019328899995 0.24941192897 9.18465946609
Al 4.20154037697 8.31592717233 4.5736988283299995
Al 9.20311562197 8.299938437329999 4.5585133633299995
Al 1.68876789807 4.54812639143 4.58601819483
Ga 6.690343143070001 4.53213765643 4.57083272983
Al 3.38149916679 4.03320144487 9.18752556459
Al 8.383074411789998 4.017212709870001 9.17234009959
Al 3.452133770085 1.344707017245 7.237700545755
Al 8.453709015085 1.3287182822449999 7.2225150807550005
Al 1.6064001250949997 7.232102314655 2.6299847707049997
In 6.607975370095 7.216113579655 2.6147993057049996
Al 4.102121421935 5.627976361695 2.6243901153049998
In 9.103696666934999 5.611987626695 2.6092046503049997
Al 0.9564124732449999 2.948832970205 7.243295201155
Al 5.9579877182450005 2.932844235205 7.228109736155
O 4.189239912504999 5.7371868018250005 8.206478366335
O 9.190815157505 5.721198066825001 8.191292901335
O 0.875160567515 2.8418817822749998 3.6141361716050002
O 5.876735812515 2.8258930472749997 3.598950706605
O 3.3715355837949996 1.4437082919550002 3.608283699805
O 8.373110828795 1.427719556955 3.5930982348050002
O 1.6928648962250001 7.135360292145 8.212330838135
O 6.694440141224999 7.119371557145 8.197145373135
O 2.643478194945 0.075541246265 5.786235102135
O 7.6450534399449985 0.059552511265 5.7710496371349995
O 2.406311168115 8.497900521035 1.170480242685
O 7.407886413115 8.481911786034999 1.155294777685
O 4.893969925194999 4.353694195514999 1.168065322885
O 9.895545170195001 4.337705460514999 1.152879857885
O 0.155819437865 4.219747571785 5.788650021935
O 5.157394682864998 4.203758836785 5.773464556935
O 0.100898092015 7.097828256295 1.105531859665
O 5.102473337015 7.081839521295 1.0903463946649998
O 4.948448509925 1.4754430014049997 5.7037926005149995
O 9.950023754924999 1.4594542664049999 5.688607135514999
O 2.451855587165 2.804965670845 5.709731011115
O 7.453430832165 2.788976935845 5.694545546115
O 2.5974910147749997 5.768305586855001 1.099593449065
O 7.599066259774999 5.752316851855 1.0844079840649998
O 4.901930226649999 7.156687449229999 5.85348139079
O 9.90350547165 7.140698714229999 5.83829592579
O 0.14835724267 1.41694614137 1.26904869925
O 5.14993248767 1.40095740637 1.25386323425
O 2.6537753778699997 2.86778171757 1.25962976725
O 7.6553506228699995 2.85179298257 1.24444430225
O 2.3965120914499995 5.705851873029999 5.86290032279
O 7.398087336449999 5.68986313803 5.84771485779
O 1.834163621765 1.4622868424650002 7.970223478775
O 6.835738866764999 1.446298107465 7.955038013775
O 3.228742539475 7.116206271734999 3.352946823505
O 8.230317784475 7.100217536734999 3.337761358505
O 0.723596787375 5.751184221635 3.3622583320049997
O 5.725172032375 5.735195486635 3.3470728670049996
O 4.3393093738649995 2.827308892565 7.960911970274999
O 9.340884618865001 2.811320157565 7.945726505275
O 4.206249456129999 0.00480593515 8.27803146991
O 9.20782470113 -0.01118279985 8.26284600491
O 0.85853843987 8.57441184485 3.67155009209
O 5.860113684869999 8.55842310985 3.6563646270900003
O 3.3457613839900002 4.29290387757 3.66930704989
O 8.347336628989998 4.27691514257 3.65412158489
O 1.7190265120100001 4.286313902429999 8.28027451211
O 6.72060175701 4.270325167429999 8.26508904711
