30

In -0.00333761378256 0.00479842634244 2.0789027273119602
In -0.01462523378256 0.02102643134244 9.10963352231196
Ga -0.01923762621744 0.02765758365756 11.982558862688041
In -0.00795000621744 0.01142957865756 4.951828067688041
Al 2.6035133793836747 1.5573723579711678 6.766604600515209
In 2.5922257593836746 1.573600362971168 13.797335395515208
In 2.6101886069487947 1.5477755052862878 2.608799145891289
Ga 2.5989009869487947 1.564003510286288 9.63952994089129
Ga -0.0464434169487941 3.0611662747137123 11.446279814108712
Al -0.0351557969487941 3.0449382697137124 4.4155490191087114
In -0.0397681893836741 3.051569422028832 7.288474359484792
Al -0.0284805693836741 3.035341417028832 0.2577435644847912
O 3.6406882899644004 0.0419498033184 3.520933107052
O 0.7867013169348 1.4101661829972 3.5134100149732
O -1.8580006068992 3.1487117911844003 3.5053704404748003
O 1.7770438730652003 3.1987755970028 10.5416689450268
O -0.8350619131008 1.4114499288156002 10.5416817195252
O 1.5935441800356 0.0392862666816 10.548555282948
O 0.9907315731306344 1.5457436749471278 8.200608180255248
O 3.3935523101010343 2.9627401146259276 8.201111888176449
O 3.4193376662670345 0.1735800128131278 8.207481743678049
O 1.8201496762314342 0.1424077486315278 1.1742918582300488
O 1.7943643200654347 2.9315678504443277 1.1679220027284487
O 4.222970413201835 1.559404188310328 1.1747955661512488
O -1.6592252232018343 3.0495375916896723 12.880283393848751
O 0.7435955137685656 4.466534031368472 12.880787101769952
O 0.769380869934566 1.6773739295556724 12.887156957271552
O -0.8298071201010341 1.6462016653740723 5.8539670718235515
O -0.8555924762670342 4.435361767186873 5.847597216321952
O 1.5730136168693656 3.0631981050528725 5.8544707797447515
