80

Al 10.800340242225 6.07075e-07 1.2620336482199999
In 10.800336567225 3.2502524520750002 1.26203144822
In 23.072948067225 3.282075e-06 1.22722747822
In 23.072944392225 3.2502551270750004 1.22722527822
In -0.2616849572250001 -6.832075e-06 5.0137575317800005
Al -0.2616886322250002 3.2502450129250002 5.0137553317800005
Ga 12.010922867775 -4.157075e-06 4.97895136178
Al 12.010919192774999 3.250247687925 4.97894916178
In 4.664034492224999 1.625125192075 1.2794356332199999
In 4.664030817225 4.875377037075 1.27943343322
In 16.936642317224997 1.6251278670750002 1.24462946322
Al 16.936638642225 4.8753797120749995 1.24462726322
In 5.874617117774999 1.6251204279250002 4.99635334678
In 5.874613442775 4.8753722729249995 4.99635114678
In 18.147224942774997 1.6251231029250002 4.96154717678
In 18.147221267775 4.875374947925 4.96154497678
In 9.131769900885 1.6251220667750002 4.29979669313
In 9.131766225885 4.875373911775 4.29979449313
In 21.404377725884995 1.625124741775 4.264990523130001
In 21.404374050884996 4.875376586775 4.264988323130001
In 1.406881709115 1.6251235532250001 1.97599228687
Ga 1.406878034115 4.875375398225 1.97599008687
In 13.679489534115001 1.625126228225 1.94118611687
In 13.679485859115001 4.875378073225 1.94118391687
Al 2.9954678258850005 -5.193225e-06 4.31720087813
Ga 2.995464150885 3.2502466517750004 4.3171986781300005
Al 15.268075650885 -2.518225e-06 4.28239470813
In 15.268071975885002 3.2502493267750006 4.28239250813
Ga 7.543187459115001 -1.031775e-06 1.95859030187
In 7.5431837841150005 3.2502508132250005 1.95858810187
In 19.815795284115 1.643225e-06 1.92378413187
In 19.815791609115003 3.2502534882250003 1.92378193187
O 9.391709411294999 -1.677075e-06 2.72894633936
O 9.391705736294998 3.2502501679250004 2.7289441393600002
O 21.664317236295 9.97925e-07 2.6941401693600002
O 21.664313561295 3.250252842925 2.69413796936
O 1.146945873705 -4.547925e-06 3.5468448406399995
O 1.1469421987050001 3.2502472970750005 3.5468426406399995
O 13.419553698705 -1.872925e-06 3.5120386706399995
O 13.419550023705 3.250249972075 3.5120364706399996
O 3.2554036612950004 1.625122907925 2.74634832436
O 3.255399986295001 4.8753747529249996 2.74634612436
O 15.528011486294997 1.625125582925 2.71154215436
O 15.528007811294998 4.875377427925 2.71153995436
O 7.283247948705002 1.625122712075 3.5294406556399998
O 7.283244273705002 4.875374557075 3.52943845564
O 19.555855773704998 1.625125387075 3.49463448564
O 19.555852098705 4.875377232075 3.49463228564
O 8.704409773275 -5.687375e-06 5.58736848955
O 8.704406098275 3.2502461576250004 5.58736628955
O 20.977017598274998 -3.012375e-06 5.55256231955
O 20.977013923275 3.250248832625 5.55256011955
O 1.8342455117249998 -5.37625e-07 0.68842269045
O 1.834241836725 3.250251307375 0.68842049045
O 14.106853336725 2.137375e-06 0.6536165204500001
O 14.106849661725 3.250253982375 0.65361432045
O 2.5681040232749996 1.6251188976250002 5.60477047455
O 2.568100348275 4.875370742625 5.6047682745500005
O 14.840711848274998 1.6251215726250001 5.56996430455
O 14.840708173274999 4.875373417625 5.56996210455
O 7.970547586725001 1.625126722375 0.67101850545
O 7.9705439117250005 4.875378567375 0.67101630545
O 20.243155411725 1.625129397375 0.63621233545
O 20.243151736725 4.875381242375 0.63621013545
O -1.23923814342 1.6251193205 4.68863350637
O -1.23924181842 4.8753711655 4.6886313063700005
O 11.03336968158 1.6251219955 4.65382733637
O 11.03336600658 4.8753738405 4.65382513637
O 11.77788975342 1.6251262995 1.58715547363
O 11.77788607842 4.8753781445 1.58715327363
O 24.050497578419996 1.6251289745 1.55234930363
O 24.050493903419998 4.8753808195 1.55234710363
O 4.897067606579999 -5.2645e-06 4.67123152137
O 4.897063931579999 3.2502465805000003 4.67122932137
O 17.16967543158 -2.5895e-06 4.63642535137
O 17.16967175658 3.2502492555 4.63642315137
O 5.64158767842 -9.605e-07 1.6045596586300002
O 5.641584003419999 3.2502508845 1.60455745863
O 17.91419550342 1.7145e-06 1.56975348863
O 17.91419182842 3.2502535595 1.56975128863
