80

Al -0.058714625 -0.0270402075 5.9361782475
Ga -0.176143875 -0.0811206225 17.8085347425
Al 4.564142154999999 2.7580259425 5.9937280625
Ga 4.446712904999999 2.7039455275 17.8660845575
Al 3.05673102 0.0309243225 5.9673250675
Al 2.9393017699999997 -0.0231560925 17.8396815625
Ga 1.44869651 2.7000614125 5.9625812425
Al 1.33126726 2.6459809975 17.8349377375
Ga 0.0 0.0 0.0
Al -0.11742925 -0.054080415 11.872356495
Ga 4.622856779999999 2.78506615 0.057549815
Al 4.5054275299999995 2.730985735 11.92990631
Ga 3.115445645 0.05796453 0.03114682
Ga 2.998016395 0.003884115 11.903503315
Ga 1.507411135 2.72710162 0.026402995
Ga 1.3899818849999999 2.673021205 11.89875949
Ga -0.0628950833875 1.785046258293 2.975308125111
Al -0.1803243333875 1.730965843293 14.847664620111
Ga -1.6709295933875001 4.454183348293 2.970564300111
Al -1.7883588433875002 4.400102933293001 14.842920795111
Ga 3.052550561612499 1.843010788293 3.006454945111
Al 2.935121311612499 1.788930373293 14.878811440111
Al 1.444516051612499 4.512147878293 3.001711120111
Ga 1.327086801612499 4.458067463293 14.874067615111
Al 1.4528769683874996 0.8879749467069998 8.923451364889
Al 1.3354477183874998 0.8338945317069999 20.795807859889
Ga -0.1551575416125001 3.5571120367069997 8.918707539889
Al -0.2725867916125001 3.5030316217069997 20.791064034889
Al 4.5683226133875 0.9459394767069998 8.954598184889
Ga 4.450893363387499 0.8918590617069999 20.826954679889
Ga 2.9602881033875 3.6150765667069997 8.949854359889
Ga 2.8428588533875003 3.5609961517069997 20.822210854889
O -0.0821417374625 1.7761824782745 4.9211873546415
O -0.1995709874625 1.7221020632744999 16.793543849641498
O -1.6901762474625002 4.445319568274501 4.9164435296415
O -1.8076054974625002 4.3912391532745 16.7888000246415
O 3.033303907537499 1.8341470082745 4.9523341746415
O 2.915874657537499 1.7800665932745 16.824690669641498
O 1.425269397537499 4.5032840982745 4.9475903496415
O 1.307840147537499 4.4492036832745 16.8199468446415
O 1.4721236224624996 0.8968387267254999 6.9775721353585
O 1.3546943724624996 0.8427583117254999 18.8499286303585
O -0.1359108875375001 3.5659758167255 6.9728283103585
O -0.2533401375375001 3.5118954017255 18.8451848053585
O 4.5875692674624995 0.9548032567254999 7.0087189553585
O 4.4701400174625 0.9007228417254999 18.8810754503585
O 2.9795347574625004 3.6239403467255 7.0039751303585
O 2.8621055074625 3.5698599317255 18.8763316253585
O 1.4336303143124998 0.8791111666884999 10.8693305944195
O 1.3162010643124997 0.8250307516884999 22.7416870894195
O -0.1744041956875001 3.5482482566885 10.8645867694195
O -0.2918334456875001 3.4941678416885 22.736943264419498
O 4.5490759593125 0.9370756966884999 10.9004774144195
O 4.4316467093125 0.8829952816884999 22.7728339094195
O 2.9410414493125003 3.6062127866885 10.8957335894195
O 2.8236121993125 3.5521323716885 22.768090084419498
O -0.0436484293125 1.7939100383114999 1.0294288955805
O -0.1610776793125 1.7398296233114998 12.901785390580502
O -1.6516829393125 4.4630471283115005 1.0246850705805
O -1.7691121893125001 4.408966713311501 12.897041565580501
O 3.071797215687499 1.8518745683114999 1.0605757155805
O 2.954367965687499 1.7977941533114998 12.932932210580502
O 1.463762705687499 4.5210116583115 1.0558318905805
O 1.346333455687499 4.4669312433115005 12.928188385580501
O -0.0293573125 -0.01352010375 2.96808912375
O -0.1467865625 -0.06760051875 14.84044561875
O 4.593499467499999 2.77154604625 3.02563893875
O 4.476070217499999 2.71746563125 14.89799543375
O 3.0860883324999997 0.04444442625 2.99923594375
O 2.9686590825 -0.00963598875 14.87159243875
O 1.4780538225 2.71358151625 2.99449211875
O 1.3606245725 2.65950110125 14.86684861375
O -0.0880719375 -0.04056031125 8.90426737125
O -0.2055011875 -0.09464072625 20.77662386625
O 4.5347848425 2.74450583875 8.96181718625
O 4.417355592499999 2.69042542375 20.83417368125
O 3.0273737075 0.01740421875 8.93541419125
O 2.9099444575 -0.03667619625 20.80777068625
O 1.4193391974999998 2.68654130875 8.93067036625
O 1.3019099475 2.63246089375 20.80302686125
