80

In 7.1834981725 2.39248393 7.1670246275
Ga 2.3927628375000003 7.16885121 7.1813849025000005
In 7.1688508525 7.1827025550000005 2.3899353625
Al 7.1764765125 7.176016155 7.1735763825
Al 2.3851371775000003 7.17553761 2.3977438825
In 7.175872512500001 2.39917033 2.3833836075
Al 2.3997844975000002 2.385318985 7.1748331475
In 2.3921588375000002 2.392005385 2.3911921275
Al 7.17665198538 4.4623130512 4.77803447566
Al 2.37829099038 9.245366731199999 0.00875373066
Al 7.168071379620001 5.1195598338 -0.00471550566
In 4.7802883001200005 7.1762315577 4.46037254314
Ga 0.01122194512 2.3788479877 9.24527032814
Al -0.00238828512 7.1681572623 5.118756241860001
In 4.4628379751 4.78018035374 7.17473574436
Ga 9.2459476501 0.01049947374 2.3767344493600002
In 5.120444694900001 -0.00237743874 7.16712203064
Al 2.39198336462 5.1057084887999995 4.78673403434
Al 7.17509303962 0.3360276088 -0.01126726066
Al 2.3853126503800004 4.4618345062 0.00220197566
Al 4.7883470498800005 2.3917899823 5.10439596686
Al -0.01001394512 7.1748436623 0.33511522186
In 0.00359628512 2.3855343877 4.46162930814
In 5.105797374900001 4.7878411862600005 2.39003276564
Al 0.3367310199000001 -0.00954238374 7.17493055064
In 4.462233975100001 0.00333452874 2.38454296936
Al 2.39900502462 0.3221762638 4.78018227934
In 4.780721389880001 2.3984763823 0.3207549468600001
In 0.3220836999000001 4.78067624126 2.39784128564
In 7.169630325380001 9.245845276199999 4.78458623066
Ga 4.78791396012 7.169545157700001 9.24401356314
Al 9.2465516501 4.78734529874 7.16692722436
O 5.9363188848 3.7408341749500003 6.271577925850001
O 3.6359819089600003 8.518413139949999 8.08052679397
O 8.413162892040003 5.83686639645 1.4867330406300001
O 5.936124689200001 5.823940138649999 8.07308351455
O 6.273488749320001 5.935751602040001 3.7386866756000003
O 8.08316114792 3.6356637533600002 8.51624684968
O 1.4894485988800001 8.413108143639999 5.83556959292
O 8.075489878880001 5.935530350960001 5.8214181568
O 3.7411074943300004 6.27330613019 5.93420450472
O 8.518520708370001 8.082288663789999 3.6327117550000003
O 5.83779365983 1.48942089321 8.4117415654
O 5.824166512470001 8.07503816281 5.93326344988
O 3.6323164652 5.82718736505 3.29319058415
O 5.93265344104 1.0496084000500001 1.48424171603
O 1.1554724579600002 3.73115514355 8.07803546937
O 3.6325106608000004 3.74408140135 1.49168499545
O 3.2951466006800003 3.6322699379600003 5.8260818344
O 1.48547420208 5.93235778664 1.04852166032
O 8.07918675112 1.15491339636 3.72919891708
O 1.49314547112 3.63249118904 3.7433503532000003
O 5.82752785567 3.2947154098099998 3.63056400528
O 1.05011464163 1.48573287621 5.9320567550000005
O 3.73084169017 8.07860064679 1.1530269445999999
O 3.744468837530001 1.49298337719 3.6315050601200003
O 1.1379578898 8.523887854949999 1.50229718085
O 8.419091583960002 3.7487322599499997 3.2825254989699997
O 3.6440965370400002 1.03948282645 6.271630825630001
O 1.1518070141999999 1.03992936865 3.2906992595499998
O 1.5044223943200001 1.13836803204 8.5235844606
O 3.28480015292 8.41871743336 3.7469661046800002
O 6.272558273880001 3.64342726364 1.03756829792
O 3.2911722038799995 1.15151958096 1.0390339018
O 8.524217169330003 1.50362525019 1.1362032097199999
O 3.7494543533700004 3.28490509379 8.41760954
O 1.03943266483 6.27247457321 3.6424608204
O 1.0398488374700001 3.29102739281 1.15087919488
O 8.430677460200002 1.04413368505 8.06247132915
O 1.14954376604 5.81928928005 6.28224301103
O 5.924538812960001 8.528538713549999 3.29313768437
O 8.4168283358 8.52809217135 6.27406925045
O 8.06421295568 8.42965350796 1.0411840494
O 6.283835197080001 1.14930410664 5.81780240532
O 3.29607707612 5.92459427636 8.52720021208
O 6.277463146120001 8.41650195904 8.5257346082
O 1.04441818067 8.06439628981 8.42856530028
O 5.81918099663 6.283116446210001 1.14715897
O 8.52920268517 3.29554696679 5.9223076896
O 8.52878651253 6.276994147190001 8.41388931512
