80

In -0.05983065 -0.055519095 5.9793970275
Al -0.17949195 -0.166557285 17.9381910825
Al 4.57996465 2.91899025 6.0511413625
Al 4.46030335 2.80795206 18.0099354175
Al 3.11878371 0.092374965 6.0117745875
In 2.99912241 -0.018663225 17.9705686425
In 1.4013502899999999 2.7710961899999997 6.0187638025000005
In 1.28168899 2.660058 17.9775578575
Al 0.0 0.0 0.0
Al -0.1196613 -0.11103819 11.958794055
Al 4.6397953 2.974509345 0.071744335
In 4.5201340000000005 2.863471155 12.03053839
Al 3.17861436 0.14789406 0.03237756
Al 3.05895306 0.03685587 11.991171615
In 1.46118094 2.826615285 0.039366775
Al 1.34151964 2.715577095 11.99816083
Al -0.115324276584 1.8071691112829997 3.0051489652170003
Al -0.234985576584 1.6961309212829998 14.963943020217
Al -1.8327576965840005 4.485890336283 3.012138180217
In -1.9524189965840004 4.374852146283 14.970932235217001
Al 3.0632900834159997 1.9550631712829998 3.0375265252170003
In 2.943628783416 1.8440249812829999 14.996320580217
Al 1.3458566634159992 4.6337843962830005 3.044515740217
Al 1.2261953634159992 4.522746206283 15.003309795217
Al 1.4568439165840001 0.9084079837169999 8.993011864783
Al 1.3371826165840002 0.7973697937169999 20.951805919783002
Al -0.2605895034159999 3.5871292087169997 9.000001079783
Al -0.3802508034159999 3.4760910187169993 20.958795134783
In 4.635458276584001 1.0563020437169999 9.025389424783
Al 4.515796976584 0.945263853717 20.984183479783
Al 2.9180248565840006 3.7350232687169997 9.032378639783
Al 2.798363556584001 3.6239850787169994 20.991172694783
O -0.134936763654 1.788969951942 4.9651953108315
O -0.254598063654 1.6779317619419998 16.9239893658315
O -1.8523701836540005 4.467691176942 4.9721845258315
O -1.9720314836540005 4.356652986942 16.9309785808315
O 3.043677596346 1.936864011942 4.9975728708315
O 2.9240162963459997 1.8258258219419998 16.9563669258315
O 1.3262441763459991 4.6155852369420005 5.0045620858315
O 1.2065828763459991 4.504547046942 16.9633561408315
O 1.4764564036540002 0.9266071430579998 7.032965519168499
O 1.3567951036540002 0.8155689530579999 18.9917595741685
O -0.2409770163459999 3.6053283680579997 7.0399547341685
O -0.3606383163459999 3.4942901780579994 18.998748789168502
O 4.655070763654001 1.074501203058 7.0653430791685
O 4.535409463654 0.963463013058 19.0241371341685
O 2.9376373436540004 3.7532224280579998 7.0723322941685
O 2.8179760436540007 3.6421842380579994 19.031126349168503
O 1.437231429514 0.8902088243759999 10.9530582103975
O 1.317570129514 0.7791706343759999 22.9118522653975
O -0.2802019904859999 3.5689300493759997 10.960047425397502
O -0.3998632904859999 3.4578918593759997 22.9188414803975
O 4.615845789514 1.0381028843759998 10.985435770397501
O 4.496184489514 0.9270646943759999 22.9442298253975
O 2.8984123695140007 3.7168241093759997 10.9924249853975
O 2.7787510695140005 3.605785919376 22.9512190403975
O -0.095711789514 1.8253682706239998 1.0451026196025
O -0.215373089514 1.7143300806239998 13.003896674602501
O -1.8131452095140006 4.504089495624 1.0520918346024999
O -1.9328065095140006 4.393051305624 13.010885889602502
O 3.082902570486 1.9732623306239998 1.0774801796025
O 2.963241270486 1.8622241406239999 13.036274234602502
O 1.365469150485999 4.651983555624001 1.0844693946025
O 1.245807850485999 4.540945365624 13.0432634496025
O -0.029915325 -0.0277595475 2.98969851375
O -0.149576625 -0.1387977375 14.94849256875
O 4.609879975 2.9467497975 3.06144284875
O 4.490218675 2.8357116075 15.02023690375
O 3.148699035 0.1201345125 3.02207607375
O 3.029037735 0.0090963225 14.98087012875
O 1.431265615 2.7988557375 3.02906528875
O 1.311604315 2.6878175475 14.987859343750001
O -0.089745975 -0.0832786425 8.96909554125
O -0.209407275 -0.1943168325 20.92788959625
O 4.550049325000001 2.8912307025 9.04083987625
O 4.430388025 2.7801925124999998 20.99963393125
O 3.088868385 0.0646154175 9.00147310125
O 2.9692070850000003 -0.0464227725 20.96026715625
O 1.371434965 2.7433366425 9.00846231625
O 1.251773665 2.6322984524999997 20.967256371250002
