80

In 7.6511271475 2.5447451025000003 7.6621289575
In 2.5497263425 7.650450522500001 7.6611349575
Ga 7.6569311575 7.650957332500001 2.5609447175
Ga 7.653336277499999 7.648351267500001 7.6646608425
Ga 2.5533212225 7.653056587500001 2.5574188325000002
In 7.6547220275 2.5473511675 2.5584128325
In 2.5475172125 2.5468443575000004 7.6586030725
In 2.5511120925 2.5494504225 2.5548869475
In 7.6538789316599996 4.750805998280001 5.11136466932
In 2.5560730066599997 9.85911748328 0.00665454432
In 7.6577742533399995 5.447502501720001 0.00799288068
In 5.10357320184 7.650881139920001 4.763987141
In -0.00584074316 2.54676816492 9.861645496
In -0.00052563684 7.652625970080001 5.454566649
In 4.753381269419999 5.09774056184 7.66139219732
In 9.858376954419999 -0.00535879316 2.55867007232
In 5.445263090579999 -0.00615110184 7.65933983268
In 2.5505694383399997 5.446995691720001 5.10818312068
In 7.65556512334 0.34389633672 0.00546099568
In 2.55386387666 4.755511318280001 0.00412265932
In 5.10087516816 2.5469205500800003 5.455560649000001
In 0.00306924316 7.655232035080001 0.3508505240000001
In -0.00224586316 2.54937422992 4.757929371
In 5.4510671005799995 5.10006112816 2.55815559268
In 0.34165315558 -0.00405184684 7.6558139476800005
In 4.75476701942 -0.00325953816 2.55514418732
In 2.54836030834 0.3433895267200001 5.10565123568
In 5.10447004816 2.54952661508 0.351844524
In 0.34745716558 5.10216038316 2.55462970768
In 7.65608806166 9.854412163280001 5.11389655432
In 5.09997832184 7.648275074920001 9.867703266
In 9.85699120442 5.09564130684 7.66491808232
O 6.3254873765 3.9849977875500002 6.702427587470001
O 3.8766120628199996 9.088631714509999 8.62226431067
O 8.98392260338 6.211684527890001 1.60164882453
O 6.325098882300001 6.209190195050001 8.62252875233
O 6.69586435976 6.32367947921 3.99887150827
O 8.61016643292 3.87055313513 9.10269806123
O 1.5918358046799999 8.978517695670002 6.22188243397
O 8.61325432764 6.32175391499 6.22541747153
O 3.9894636965299997 6.691058150470001 6.33468707019
O 9.09562980681 8.60916572471 3.88938120395
O 6.210559160589999 1.5851815564900003 8.987624856050001
O 6.215468261069999 8.60909879333 6.33717634481
O 3.8789609935 6.21280390245 3.5171202025299997
O 6.32783630718 1.10916997549 1.59728347933
O 1.2205257666199998 3.9861171621100007 8.61789896547
O 3.8793494877 3.9886114949500007 1.59701903767
O 3.5085840102399994 3.8741222107900004 6.22067628173
O 1.5942819370799999 6.327248554870001 1.11684972877
O 8.61261256532 1.21928399433 3.99766535603
O 1.59119404236 3.8760477750100004 3.9941303184700003
O 6.214984673469999 3.5067435395300004 3.8848607198100003
O 1.1088185631899998 1.5886359652900002 6.33016658605
O 3.99388920941 8.612620133510001 1.23192293395
O 3.98898010893 1.58870289667 3.88237144519
O 1.2276814514999999 9.09330927255 1.59771746247
O 8.981607747819998 3.9855323595100005 3.5195421856699998
O 3.87450865838 1.10757155289 6.699307179530001
O 1.2228746972999998 1.1102893500500002 3.5127548573299996
O 1.5864504147599998 1.21956650421 9.09652986327
O 3.512360507919999 8.97886462013 3.9979879362300004
O 6.696831489679999 3.8754183406700005 1.11916030897
O 3.5110301426399997 1.22285306999 1.11564357653
O 9.094459381530001 1.58795879547 1.2319649451899999
O 3.98621586181 3.5050527497100004 8.98703955895
O 1.1127532355899998 6.69349304149 3.88291473105
O 1.1132440760699998 3.5101979483300005 1.22740244981
O 8.9767669185 1.10449241745 8.62183032753
O 1.22284062218 6.212269330490001 6.70000560433
O 6.32993971162 9.09023013711 3.5202406104699997
O 8.9815736727 9.08751233995 6.70679293267
O 8.61799795524 8.978235185790002 1.12301792673
O 6.69208786208 1.2189370698700002 6.22155985377
O 3.507616880319999 6.322383349330001 9.10038748103
O 6.69341822736 8.97494862001 9.10390421347
O 1.1099889884699998 8.60984289453 8.98758284481
O 6.21823250819 6.6927489402900004 1.23250823105
O 9.091695134410001 3.5043086485100003 6.33663305895
O 9.09120429393 6.687603741670001 8.99214534019
