40

Ga 0.097141345131475 3.671057227099654 15.191087816718575
In 1.6281521968982564 2.743834224961416 2.8419109356257906
In 3.1988859518982564 -0.0336276650385844 2.8336894606257905
Ga -1.5591542631017434 2.775532669961416 2.6228444056257905
Ga 3.2025861417202686 1.809376647938931 0.2975696914056337
In 3.2286399979702685 1.8050359029389311 6.180471167655633
In 0.0202641106482565 -0.0033761350385844 4.575590089375791
In -1.5207155982797322 4.612749322938931 7.930593271405633
In 0.0500181567202681 1.8352874329389313 7.922371796405633
Ga 1.666590861720268 4.581050877938931 8.149659801405633
In 0.079772107631475 3.6739510570996536 11.269153499218575
In 3.2460092354702685 1.802142072938931 10.102405485155634
In 4.846496941381476 0.8633438070996532 13.440965712968575
In 3.275763186381475 3.640805697099654 13.449187187968574
In 1.659190481381475 0.8950422520996533 13.221899182968574
In 0.0463179668982565 -0.0077168800385844 10.45849156562579
O 4.731064551270268 0.9094614385389311 1.6984977769556338
O 3.2231601464702684 3.575824852938931 1.7063903929556339
O 1.6712503496702682 0.9398919457389312 1.4881939081556337
O 0.0633398196482565 -0.0105528334385844 14.30198719677579
O 0.036696398631475 3.681127755499654 1.5427563918185754
O 1.7435846821702676 2.697716537338931 14.584378875855634
O 3.2514890869702677 0.0313531229389311 14.576486259855633
O 4.803398883770267 2.6672860301389307 14.794682744655633
O 1.5821966609314755 2.7783765926996535 6.787180108518576
O 0.0742922561314756 5.444740007099654 6.795072724518575
O -1.4776175406685246 2.8088070998996533 6.576876239718575
O 3.2196079944702687 1.806540694538931 4.141065322555633
O 0.0292961141482565 -0.0048809266385844 6.614995934475791
O -1.4747601581685248 4.5782070114996545 3.985323937418575
O 0.0331442466314754 1.9118435970996535 3.977431321418575
O 1.5850540434314757 4.547776504299654 4.1956278062185755
O -1.5666711335517434 4.647291690561415 11.87586260117579
O 0.0668919716482566 1.7587313249614156 11.867312267175791
O 1.7481275848482571 4.6143253077614155 12.10369179237579
O 0.070740104131475 3.675455848699654 9.229747654118574
O 3.2550412389702688 1.800637281338931 12.141811330255633
O 4.892452477348256 0.8288014393614157 9.495696540075791
O 3.258889372148256 3.717361804961416 9.504246874075791
O 1.5776537589482567 0.8617678221614157 9.267867348875791
