80

Ga 1.6716175202 7.499539180219999 6.54611998489
Ga 6.8046027302 7.47280876522 6.52155098989
Ga 3.54714418424 1.2976964556599997 1.83723365689
Ga 8.68012939424 1.2709660406599999 1.8126646618900002
Al 0.9898549941600001 3.0897773616799995 1.8455986352700002
In 6.122840204159999 3.0630469466799997 1.8210296402700001
Ga 4.22890671028 5.7074582741999995 6.537755006509999
Ga 9.361891920280002 5.680727859199999 6.51318601151
In 0.9487837932700001 5.789249560795 -0.017165392585
Ga 6.081769003270001 5.762519145794999 -0.041734387585
In 4.25225450673 2.999858044205 4.686462522585
Al 9.38523971673 2.973127629205 4.661893527585001
Ga 1.67737859309 1.393006971865 4.702317275125
Ga 6.8103638030900004 1.366276556865 4.677748280125
Ga 3.5686429669100006 7.416730153134999 9.393519224875
Ga 8.70162817691 7.389999738135 9.368950229875
In 0.90864663582 0.28028387856 9.41240313267
Ga 6.04163184582 0.25355346356 9.38783413767
Ga 4.3372849576600006 8.529411987399998 4.66458028859
Ga 9.470270167660003 8.502681572399998 4.640011293590001
Al 1.7507453102600001 4.6683469605 4.685402352490001
Al 6.88373052026 4.6416165455 4.6608333574900005
Ga 3.4951862832200002 4.141348905459999 9.39158106877
Al 8.62817149322 4.11461849046 9.36701207377
Ga 3.5586498436900005 1.3803922497849999 7.3988103636950004
Ga 8.69163505369 1.3536618347849998 7.374241368695
Ga 1.6682088475499999 7.420556699694999 2.681320364685
Al 6.80119405755 7.393826284694999 2.656751369685
Al 4.22622702099 5.769364165835 2.672644929345
Ga 9.35921223099 5.742633750835 2.648075934345
Ga 1.00063167025 3.0315847836449996 7.407485799035
Al 6.133616880250001 3.0048543686449998 7.382916804035001
O 4.32589540701 5.887157708265001 8.384550978915
O 9.458880617010001 5.860427293265 8.359981983915
O 0.9104997353500001 2.918164699455 3.6940060959050003
O 6.04348494535 2.8914342844550003 3.669437100905
O 3.4696113838300002 1.478304723835 3.6848649751250004
O 8.602596593829999 1.451574308835 3.6602959801250003
O 1.7667837585300004 7.327017683884999 8.393692099695
O 6.899768968529999 7.300287268884999 8.369123104695001
O 2.7235217589300005 0.078192209545 5.916219909315
O 7.85650696893 0.051461794545 5.891650914315
O 2.48912222215 8.716237811614997 1.185124378145
O 7.622107432150001 8.689507396614998 1.1605553831450002
O 5.03365420343 4.458610392794999 1.182192396565
O 10.166639413430001 4.431879977795 1.157623401565
O 0.17898977765 4.335819628365 5.919151890895001
O 5.311974987649999 4.309089213365 5.894582895895001
O 0.12011708003 7.284262951714999 1.124195984725
O 5.25310229003 7.257532536714999 1.099626989725
O 5.09180716889 1.5098369971249999 5.8263236728150005
O 10.224792378890003 1.4831065821249998 5.801754677815
O 2.5323310287300003 2.8792527866649995 5.835620022075
O 7.665316238730002 2.8525223716649997 5.811051027075
O 2.67959322019 5.914847162175 1.114899635465
O 7.812578430189999 5.888116747175 1.090330640465
O 5.056004763100001 7.33979159248 5.9740490823200005
O 10.1889899731 7.31306117748 5.94948008732
O 0.15744891666 1.45500976004 1.2969729138000001
O 5.29043412666 1.42827934504 1.2724039188000003
O 2.73168696986 2.9385835067399997 1.2813898111000002
O 7.864672179860001 2.91185309174 1.2568208161
O 2.4817667099 5.85621784578 5.9896321850200005
O 7.6147519199 5.8294874307799995 5.96506319002
O 1.8997086121699998 1.505154438705 8.151215082025
O 7.032693822170001 1.4784240237050001 8.126646087025
O 3.3342574341500004 7.299053974934999 3.418308866815
O 8.46724264415 7.272323559934999 3.3937398718150003
O 0.7604749955500001 5.903535460834999 3.433697933915
O 5.89346020555 5.876805045835 3.409128938915
O 4.473491050770001 2.900672952805 8.135826014925
O 9.60647626077 2.873942537805 8.111257019925
O 4.331706131020001 0.00502546432 8.46332634962
O 9.464691341020002 -0.02170495068 8.43875735462
O 0.9053187769800001 8.80058575668 3.7472022763800004
O 6.03830398698 8.773855341680001 3.7226332813800003
O 3.4491217749 4.4020699657 3.7445807517600005
O 8.582106984900001 4.3753395507 3.7200117567600004
O 1.7879031331000002 4.403541255299999 8.465947874240001
O 6.920888343100001 4.376810840299999 8.44137887924
