30

Ga -0.00236855845704 0.0040615777602 2.05127671870404
Al -0.01037888845704 0.0177976027602 8.988577923704039
In -0.01365210154296 0.0234104722398 11.82332569129596
Ga -0.00564177154296 0.0096744472398 4.88602448629596
Al 2.56584987423216 1.525990942947426 6.676000889179081
Al 2.5578395442321598 1.5397269679474261 13.61330209417908
In 2.57058699114624 1.517867787427026 2.5734474517710004
In 2.56257666114624 1.5316038124270261 9.510748656771
In -0.0364034611462395 3.007268362572974 11.295163618229
Ga -0.0283931311462395 2.993532337572974 4.357862413228999
Ga -0.0316663442321595 2.999145207052574 7.19261018082092
Ga -0.0236560142321595 2.985409182052574 0.2553089758209197
O 3.5824408180516003 0.0350658588436 3.4725083368511998
O 0.7772753906484001 1.3847723861760002 3.4668150955776
O -1.8215275137000002 3.0984298924804 3.4606370350712
O 1.7569081393516002 3.1403637638240003 10.4017959744224
O -0.8147606463000001 1.3860542675196001 10.4024124549288
O 1.5720102119484003 0.0330581811564 10.4076556531488
O 0.9801875607407997 1.516343234030826 8.09167092732624
O 3.3454938233375993 2.906701751363226 8.09153926605264
O 3.3669584189891997 0.1633471476676261 8.09691412554624
O 1.7909430420407997 0.1371569790112261 1.1579090748974403
O 1.7694784463891997 2.8805115827068257 1.1525342154038403
O 4.1562493046375995 1.527515496343626 1.1577774136238401
O -1.6220657746375995 2.997620653656374 12.71083365637616
O 0.7432404879592002 4.387979170988773 12.710701995102559
O 0.7647050836108005 1.6446245672931739 12.71607685459616
O -0.8113102933375995 1.618434398636774 5.77707180394736
O -0.8327748889891996 4.361789002332373 5.77169694445376
O 1.5539959692592002 3.008792915969174 5.77694014267376
