40

Ga 0.96850902701 5.88882789666 -0.02188039296
In 4.33455711799 3.05291003334 4.75481543296
Ga 1.71228812459 1.4194491963 4.774086592
In 3.59077802041 7.5222887337 -0.041151552
Ga 3.6298995664200002 1.40757390167 7.511477910910001
Ga 1.70392041372 7.54978796393 2.71746978465
Ga 4.30760797012 5.86893483627 2.70755992531
Ga 1.02621201002 3.08842702933 7.5213877702500005
Ga 1.71061102865 7.63269719165 6.64307839843
Ga 3.61356489169 1.3197651819499998 1.86238100793
Ga 1.0106808568899999 3.1439399945699997 1.8718860543100002
Ga 4.3134950634499996 5.80852237903 6.63357335205
Ga 0.93300870921 0.29096819046 9.5596900686
In 4.4235283895699995 8.67793470074 4.72903004152
Ga 1.7884030505700002 4.75132690434 4.75477820792
Ga 3.56813404821 4.21757598686 9.5339419022
O 4.41384374384 5.99250837727 8.509257646550001
O 0.93133479562 2.97062400113 3.74957625629
O 3.5362276344200003 1.50475340091 3.73905917751
O 1.80895090504 7.45837897749 8.51977472533
O 2.7778325318399997 0.08226398339 6.0070597694700005
O 2.53905676554 8.86649655181 1.19620848505
O 5.12787917234 4.53419225239 1.1937876654700001
O 0.18901012504 4.4145682828099995 6.00948058905
O 5.15584401196 7.46831468929 6.05926918073
O 0.1620096914 1.48093579511 1.3163479027100002
O 2.7835756034 2.98899015781 1.29743095501
O 2.53427809996 5.96026032659 6.0781861284300005
O 0.12640582886 7.41079098257 1.13720488357
O 5.18962621876 1.5375340422299997 5.91286441191
O 2.58433161916 2.93174379997 5.92358389717
O 2.73170042846 6.01658122483 1.12648539831
O 1.9415426336500001 1.53572367722 8.27703990552
O 3.40074268787 7.42593885358 3.46474751056
O 0.7796789768700001 6.00746054398 3.48341145016
O 4.56260634465 2.9542019868200002 8.258375965920001
O 4.41725416274 0.00881222643 8.592978510870001
O 0.9286744702599999 8.95470122357 3.7999044811300005
O 3.51669335546 4.47907523919 3.7978884745100006
O 1.82923527754 4.48443821081 8.59499451749
