80

In 10.84924354249 5.118555e-06 1.2145771884799998
In 10.84923680249 3.167110088555 1.21457935848
Al 23.142741752489997 1.2163555e-05 1.18777680848
In 23.142735012489997 3.1671171335549997 1.18777897848
Al -0.1437762124900001 -4.343555e-06 4.80222601152
Al -0.14378295249 3.1671006264450003 4.80222818152
Ga 12.14972199751 2.701445e-06 4.77542563152
Al 12.14971525751 3.167107671445 4.77542780152
Ga 4.70249106749 1.583554081055 1.22797846348
Ga 4.70248432749 4.750659051055 1.2279806334799999
In 16.995989277489997 1.583561126055 1.2011780834799999
Al 16.995982537489997 4.750666096055 1.20118025348
Al 6.002969522509999 1.583551663945 4.788826906520001
In 6.002962782509999 4.750656633945 4.78882907652
Ga 18.296467732509996 1.5835587089449998 4.762026526520001
Ga 18.296460992509996 4.750663678944999 4.762028696520001
Ga 9.249439440929999 1.583554108625 4.1233740213
Ga 9.249432700929999 4.7506590786250005 4.1233761913
Al 21.542937650929996 1.583561153625 4.0965736413
In 21.542930910929996 4.750666123625 4.0965758113
Ga 1.45602114907 1.5835516363750002 1.8934313487
Ga 1.4560144090699998 4.750656606374999 1.8934335187
In 13.74951935907 1.583558681375 1.8666309687
In 13.74951261907 4.750663651375 1.8666331387000001
In 3.1026937059299997 -1.898875e-06 4.1367731263000005
Ga 3.10268696593 3.1671030711249997 4.136775296300001
In 15.396191915929998 5.146125e-06 4.1099727463
Ga 15.396185175929999 3.167110116125 4.109974916300001
In 7.60277362407 2.673875e-06 1.8800300737
In 7.60276688407 3.167107643875 1.8800322437
In 19.89627183407 9.718875e-06 1.8532296937000001
Ga 19.89626509407 3.167114688875 1.8532318637
O 9.472753525109999 3.086225e-06 2.6188908502
O 9.47274678511 3.167108056225 2.6188930202000003
O 21.766251735109996 1.0131225e-05 2.5920904702
O 21.766244995109997 3.1671151012250003 2.5920926402
O 1.2327138048899997 -2.311225e-06 3.3979123498
O 1.2327070648899998 3.167102658775 3.3979145197999996
O 13.52621201489 4.733775e-06 3.3711119698
O 13.52620527489 3.167109703775 3.3711141397999995
O 3.3260010501099995 1.583552048725 2.6322921252
O 3.3259943101099996 4.750657018725 2.6322942952
O 15.619499260109999 1.583559093725 2.6054917452
O 15.619492520109999 4.750664063725 2.6054939152
O 7.379459539890001 1.5835536962749999 3.3845132448
O 7.379452799890001 4.750658666275 3.3845154147999996
O 19.672957749889996 1.583560741275 3.3577128648
O 19.672951009889996 4.750665711275 3.3577150347999996
O 8.851723522149998 3.02275e-07 5.3564288689
O 8.851716782149998 3.167105272275 5.3564310389
O 21.14522173215 7.347275e-06 5.3296284889
O 21.14521499215 3.167112317275 5.3296306589
O 1.8537438078499997 4.72725e-07 0.6603743311
O 1.8537370678499998 3.167105442725 0.6603765011
O 14.14724201785 7.517725e-06 0.6335739511
O 14.14723527785 3.1671124877250003 0.6335761211000001
O 2.70497104715 1.583549264775 5.3698301439
O 2.70496430715 4.750654234775 5.3698323139
O 14.998469257149997 1.5835563097749998 5.3430297639
O 14.998462517149997 4.750661279775 5.3430319339
O 8.00048954285 1.583556480225 0.6469752261
O 8.00048280285 4.7506614502249995 0.6469773961
O 20.293987752849997 1.583563525225 0.6201748461000001
O 20.293981012849997 4.750668495225 0.6201770161
O -1.130736321 1.58354785457 4.49029134342
O -1.130743061 4.7506528245699995 4.49029351342
O 11.162761888999999 1.58355489957 4.46349096342
O 11.162755148999999 4.75065986957 4.46349313342
O 11.836196910999998 1.5835578904299998 1.5265140265800001
O 11.836190170999998 4.750662860429999 1.52651619658
O 24.129695120999997 1.5835649354299999 1.49971364658
O 24.129688380999998 4.75066990543 1.49971581658
O 5.016016154 -1.10793e-06 4.47689006842
O 5.016009414 3.16710386207 4.47689223842
O 17.309514363999998 5.93707e-06 4.45008968842
O 17.309507624 3.16711090707 4.45009185842
O 5.6894511759999995 1.88293e-06 1.53991313158
O 5.689444436 3.16710685293 1.53991530158
O 17.982949386 8.92793e-06 1.51311275158
O 17.982942646 3.1671138979299998 1.5131149215800002
