40

Ga 3.0227484715515667 1.741322272470928 0.6156318440371056
In 0.0304284153108287 -0.0210915365933048 14.24393892587253
Ga -1.5026419146984333 4.356927707470929 2.487091437787105
Al 0.0062182253015669 1.7402370474709281 2.479890047787105
Al 1.5178572553015663 4.355261862470929 2.480738317787105
In 3.0306863190515667 1.7358201324709281 4.3314420115371055
In 4.547087568137605 0.8584495491223767 7.423432265090363
Ga 3.038227428137605 3.475140209122377 7.4306336550903636
Ga 1.5265883981376045 0.8601153941223767 7.429785385090363
Al 0.0105837965608287 -0.0073361865933048 4.95441350712253
In 0.0224905678108287 -0.0155893965933048 10.52812875837253
Al 0.0216971818876045 3.474054984122377 9.294891858840364
Al 1.5380985215608287 2.5966843484066953 12.38688211212253
Ga 3.0469586615608284 -0.0200063115933048 12.379680722122531
Ga -1.4824006484391712 2.5983501934066955 12.39323523212253
In 3.0425930903015668 1.7275669224709282 9.905157262787105
O 1.4539464104876045 2.6480655249223766 1.2644044538403634
O 0.0054406760876047 5.160088558522377 1.2713177882403635
O -1.4457327927123953 2.6496647361223764 1.2705034490403635
O 3.050372180851567 1.7221748252709281 13.546651226937106
O 0.0028047060108287 -0.0019440893933048 1.312919542972531
O -1.4184898942123956 4.305546583322378 13.609569096340364
O 0.0300158401876048 1.7935235497223767 13.602655761940364
O 1.4811893089876047 4.303947372122377 13.603470101140363
O -1.5550426360891711 4.386300324206695 6.227854300872531
O 0.0141719095108287 1.6649420378066953 6.220364855272531
O 1.5862765007108293 4.384567845406695 6.221247056072531
O 0.0096316536876045 3.482418236922377 3.646860404240363
O 3.0348139997515666 1.7329590196709281 6.2636632986371055
O 4.599488289210828 0.8290769326066952 3.6826692533725307
O 3.0302737436108282 3.5504352190066957 3.690158698972531
O 1.4581691524108287 0.8308094114066953 3.689276498172531
O 4.494686937651567 0.8878221132709282 11.164195276537106
O 3.046181203251567 3.3998451468709288 11.171108610937106
O 1.5950077344515665 0.8894213244709281 11.170294271737106
O 0.0183628871108287 -0.0127282837933048 8.59590747127253
O 0.0258248625876045 3.471193871322377 11.227113145940363
O 1.5904992429515667 2.5673117316709284 8.646119249037106
O 3.0390049773515666 0.0552886980709281 8.639205914637106
O 4.490178446151567 2.5657125204709286 8.640020253837106
