80

In 7.172798617499999 2.388578015 7.153381695
Ga 2.3895000175 7.156191980000001 7.169519595000001
Al 7.156369432499999 7.171419705 2.384987845
Al 7.165143457499999 7.1640813 7.160523915000001
Al 2.3807259925 7.1635303850000005 2.3939835250000003
In 7.164024592499999 2.3959164200000003 2.377845625
Al 2.3971551775 2.3806886950000004 7.162377375
In 2.3883811525 2.3880271000000004 2.386841305
In 7.165104575879999 4.45526463662 4.76869909904
Al 2.3730319508799997 9.23021700662 0.00930092904
In 7.15528944912 5.11207148838 -0.00586562904
Ga 4.7723380913 7.164304854040001 4.45251726724
Ga 0.0131238363 2.37357384404 9.22990679724
Al -0.0021120813 7.1554175109600004 5.110985852760001
Al 4.45640556358 4.77184852374 7.16206235124
In 9.23093013858 0.01157296374 2.37038838124
In 5.113548231419999 -0.00258181374 7.15369671876
Al 2.38842003412 5.096843763380001 4.7786661209600005
Ga 7.162944609119999 0.33656820338 -0.01300784904
In 2.38068711088 4.45471372162 0.00215870904
In 4.781186518699999 2.3878035459599998 5.09484795276
Ga -0.0108861063 7.162755915960001 0.33544978276
Al 0.0043498113 2.38091224904 4.454370727240001
Ga 5.09711904642 4.78025987626 2.38530286876
Al 0.33790479142 -0.01047113374 7.16269239876
In 4.455286698579999 0.00368364374 2.37938406124
Al 2.39607519412 0.32134047838 4.77152390096
Al 4.772412493699999 2.39514195096 0.3193118827600001
In 0.32147560642 4.77237055626 2.39429854876
Ga 7.1574494158799995 9.23076792162 4.77584131904
Ga 4.7811121163 7.156966449040001 9.22805333724
Ga 9.232049003579998 4.77973784374 7.15306667124
O 5.927323051279999 3.73459833831 6.259933896680001
O 3.63065807348 8.50355550943 8.0669956054
O 8.398545965319999 5.828158621969999 1.482834081
O 5.92728443492 5.81395853029 8.05864946692
O 6.26301308243 5.9262362285300005 3.7315232273800003
O 8.071103517669998 3.6296226310499997 8.5002486561
O 1.48721443413 8.39840907215 5.8263665883
O 8.062480490769998 5.92600306827 5.8102745782200005
O 3.7353893911599996 6.2625301359600005 5.92400069768
O 8.503942959 8.06953112552 3.6254331788000003
O 5.829787583999999 1.4866506238800001 8.3962151176
O 5.814691590839999 8.061559114639998 5.92276405592
O 3.62620155872 5.817510061689999 3.28743132332
O 5.922866536519999 1.04855289057 1.4803696146
O 1.1549786446799999 3.72394977803 8.064531139
O 3.62624017508 3.7381498697100004 1.4887157530800001
O 3.2905115275699997 3.6258721714699997 5.81584199262
O 1.48242109233 5.922485768950001 1.0471165639
O 8.066310175869999 1.15369932785 3.7209986317
O 1.49104411923 3.62610533173 3.7370906417800005
O 5.818135218839999 3.2895782640399998 3.62336452232
O 1.049581651 1.48257727448 5.9219320412
O 3.723737026 8.065457776119999 1.1511501024
O 3.73883301916 1.4905492853600002 3.6246011640800004
O 1.1352504262799998 8.50955070831 1.5005357266800001
O 8.405182648479999 3.74327994943 3.2753216354
O 3.63933171032 1.0374276119699999 6.260223611000001
O 1.1505221299199997 1.03790433029 3.28496685692
O 1.5037988274299998 1.1355052185299999 8.508912757380001
O 3.2790308926699994 8.40457500105 3.7408504861000003
O 6.261739009129999 3.63813351215 1.0346926183
O 3.2857181857699995 1.1499488682699999 1.03659196822
O 8.50991396616 1.50225457596 1.13232672768
O 3.744728704 3.2788001155199997 8.4028227088
O 1.0377149589999999 6.26160299388 3.6368169476000003
O 1.0379292858399998 3.28550491464 1.14908144592
O 8.41827418372 1.04255769169 8.04682949332
O 1.14834196152 5.808828450569999 6.2720435846
O 5.91419289968 8.51468078803 3.287141609
O 8.403002480079998 8.514204069709999 6.262398363080001
O 8.049725782569999 8.416603181470002 1.03845246262
O 6.2744937173299995 1.14753339895 5.8065147339
O 3.2917856008699995 5.913974887850001 8.5126726017
O 6.26780642423 8.402159531730002 8.51077325178
O 1.04361064384 8.04985382404 8.41503849232
O 5.808795905999999 6.2733082844800006 1.1445425112
O 8.515809651 3.29050540612 5.910548272400001
O 8.51559532416 6.266603485360001 8.398283774080001
