80

Al 1.63432384705 7.416731896309999 6.48831819626
Al 6.714369767050001 7.399190016309999 6.46951271626
Ga 3.5062866578899996 1.28868099679 1.8240125602800001
Al 8.586332577890001 1.27113911679 1.80520708028
Al 0.97229562797 3.0565743544299995 1.83024849578
Ga 6.05234154797 3.0390324744299995 1.81144301578
In 4.16831487697 5.64883853867 6.4820822607599995
Al 9.24836079697 5.63129665867 6.463276780759999
In 0.9289767839999999 5.72707065104 -0.01368181142
Al 6.0090227039999995 5.70952877104 -0.03248729142
Ga 4.198102181 2.97198361396 4.64743928642
Al 9.278148101 2.95444173396 4.62863380642
Ga 1.6525847896399999 1.37838561908 4.65972664042
In 6.7326307096399995 1.36084373908 4.6409211604200005
In 3.50883818536 7.33680729592 9.31051124458
Al 8.58888410536 7.3192654159199995 9.29170576458
In 0.88865321175 0.27443128011 9.32351429145
Ga 5.96869913175 0.2568894001099999 9.30470881145
Al 4.272701075229999 8.44072935759 4.62805063273
Al 9.352746995230001 8.423187477589998 4.60924515273
Al 1.7195392576300002 4.61774849679 4.64435136273
Al 6.79958517763 4.6002066167899995 4.62554588273
In 3.44181502935 4.0974121409099995 9.30721356145
Al 8.52186094935 4.079870260909999 9.28840808145
Ga 3.5115483743500002 1.36792364049 7.33246700062
Al 8.59159429435 1.35038176049 7.31366152062
Al 1.63524405239 7.3403942096099986 2.6604302297199998
Al 6.71528997239 7.322852329609998 2.6416247497199996
Al 4.16971285895 5.71183728109 2.6539434582199997
Al 9.249758778950001 5.69429540109 2.63513797822
Al 0.9770795677899999 2.99648056901 7.33895377212
Al 6.0571254877900005 2.97893868901 7.320148292120001
O 4.26200430437 5.82587403851 8.31139918296
O 9.342050224369999 5.80833215851 8.29259370296
O 0.89206905249 2.88586520539 3.6608318943000002
O 5.97211497249 2.86832332539 3.6420264143
O 3.4272545240100003 1.4663129205499998 3.6539688688000003
O 8.507300444010001 1.4487710405499998 3.6351633888
O 1.72681883285 7.2454263233499985 8.31826220846
O 6.80686475285 7.227884443349999 8.299456728460001
O 2.6888952396500003 0.07931846523 5.86263220564
O 7.76894115965 0.06177658523 5.8438267256400005
O 2.4470444799299997 8.62389957147 1.17993721514
O 7.5270903999300005 8.60635769147 1.1611317351400001
O 4.9726744186500005 4.417618704230001 1.17809090964
O 10.05272033865 4.40007682423 1.1592854296400001
O 0.16326530093 4.2855993324699995 5.86447851114
O 5.24331122093 4.268057452469999 5.8456730311400005
O 0.10505139409 7.203641328589998 1.11646696166
O 5.185097314089999 7.1860994485899985 1.0976614816599999
O 5.03033882133 1.4993184897099998 5.77671877256
O 10.110384741329998 1.4817766097099998 5.75791329256
O 2.4949144614899996 2.84920255999 5.78370721606
O 7.57496038149 2.83166067999 5.76490173606
O 2.64047575393 5.85375725831 1.10947851816
O 7.7205216739299996 5.83621537831 1.09067303816
O 4.98465008102 7.264865646039999 5.92530507127
O 10.064696001019998 7.247323766039999 5.90649959127
O 0.15190783074 1.4386428863599998 1.2853209968900001
O 5.23195375074 1.4211010063599998 1.2665155168900002
O 2.69700716754 2.91032150576 1.27325312439
O 7.77705308754 2.89277962576 1.2544476443900001
O 2.43955074422 5.79318702664 5.93737294377
O 7.51959666422 5.7756451466400005 5.9185674637700005
O 1.86871486658 1.4880930116200002 8.07593812428
O 6.948760786579999 1.4705511316200002 8.05713264428
O 3.28350391374 7.222774745179999 3.39212301084
O 8.36354983374 7.205232865179999 3.37331753084
O 0.7387031873400001 5.83818139398 3.40403411084
O 5.8187491073399995 5.82063951398 3.38522863084
O 4.41351559298 2.87268636282 8.06402702428
O 9.49356151298 2.85514448282 8.04522154428
O 4.277857859159999 0.00856830014 8.38709531047
O 9.35790377916 -0.00897357986 8.368289830470001
O 0.87669631384 8.70339688486 3.7158464925300003
O 5.95674223384 8.68585500486 3.69704101253
O 3.40184847592 4.3577795885 3.71425102303
O 8.481894395919998 4.3402377085 3.6954455430300004
O 1.7527056970800001 4.354185596499999 8.38869077997
O 6.8327516170800005 4.336643716499999 8.36988529997
