40

Al 0.9092515502599999 5.62749230949 -0.00896681015
In 4.11579956974 2.9189316305100004 4.579086375149999
Al 1.61767525814 1.3519433996699999 4.587957320149999
Al 3.4073758618600003 7.19448054033 -0.01783775515
In 3.44029865162 1.3407419983299997 7.21979944896
Al 1.5995324862200002 7.21116294139 2.6242808084599996
Al 4.088331909819999 5.61226661103 2.6190284634599994
Al 0.9514992280200001 2.93963832869 7.22505179396
Al 1.5953303386000002 7.283573884899999 6.391359777309999
Al 3.43986595044 1.26661227442 1.79886521071
Al 0.95146976524 3.0024117209399996 1.80396107571
Al 4.0837265238 5.54777443838 6.386263912309999
Al 0.86429113836 0.26374697874 9.17622734637
Al 4.18645764332 8.2922066437 4.56360087897
Al 1.6818815173200001 4.5347685543 4.574975503969999
Al 3.3688672643600004 4.021185068139999 9.16485272137
O 4.174055967539999 5.72052337589 8.18669251054
O 0.8712339922200001 2.8334059051900002 3.6052617308399997
O 3.36063827342 1.43986424907 3.59977466584
O 1.68465168634 7.114065032009999 8.192179575539999
O 2.6345844667400002 0.07524670021 5.7717923418199995
O 2.3971099365399997 8.473640825030001 1.1688531093199999
O 4.878449449740001 4.34203684571 1.1664956443199999
O 0.15324495354 4.20685067953 5.77414980682
O 4.88481083216 7.1363425521199995 5.84008497134
O 0.147347056 1.4127168511600001 1.26594600674
O 2.645118534 2.85991485536 1.25721198174
O 2.38703935416 5.689144547920001 5.8488189963399995
O 0.09876264526 7.07711329075 1.1034580616799998
O 4.932519771459999 1.4716214540099999 5.6901780321799995
O 2.4429138710600005 2.7967115520499997 5.69574333718
O 2.58836854566 5.75202319271 1.0978927566799999
O 1.8268808450999998 1.4575237818700002 7.950113293929999
O 3.2170186600200004 7.09588986509 3.3456843666299996
O 0.7194992060200002 5.73425630849 3.3543205916299996
O 4.3244002991 2.81915733847 7.941477068929999
O 4.19230982744 0.0047815512 8.2574431444
O 0.8533406205600002 8.5492814128 3.6631442846
O 3.3342768953600004 4.28077431732 3.6609432996
O 1.71137355264 4.27328864668 8.2596441294
