80

Al 10.80525770148 2.85505e-06 1.2270423745999999
Al 10.805251421480001 3.17570966505 1.2270477895999998
In 23.058031721480003 7.45505e-06 1.2039643245999998
Al 23.05802544148 3.17571426505 1.2039697396
Ga -0.1745026214800002 -4.72505e-06 4.8377835854
Ga -0.1745089014800002 3.1757020849499997 4.8377890004
Al 12.07827139852 -1.2505e-07 4.8147055354
In 12.078265118520001 3.1757066849499997 4.8147109504
Ga 4.678867551480001 1.58785396005 1.2385841070999999
Al 4.678861271480001 4.763560770050001 1.2385895220999998
Al 16.93164157148 1.58785856005 1.2155060570999998
Al 16.93163529148 4.76356537005 1.2155114721
Ga 5.9518812485199994 1.58785097995 4.8262472679
In 5.951874968519999 4.76355778995 4.8262526829
Al 18.20465526852 1.58785557995 4.8031692179
Ga 18.20464898852 4.76356238995 4.8031746329
Ga 9.19187481798 1.5878528351799999 4.15689621831
Al 9.191868537980001 4.76355964518 4.15690163331
In 21.444648837979997 1.5878574351799999 4.13381816831
In 21.444642557979996 4.7635642451799995 4.13382358331
In 1.43887398202 1.5878521048199998 1.90793515669
In 1.43886770202 4.76355891482 1.90794057169
In 13.691648002019999 1.5878567048199999 1.88485710669
Ga 13.69164172202 4.7635635148199995 1.88486252169
In 3.0654909479800003 -2.86982e-06 4.16843253581
In 3.0654846679800003 3.17570394018 4.1684379508100005
In 15.318264967980001 1.73018e-06 4.14535448581
In 15.31825868798 3.17570854018 4.14535990081
Ga 7.56526413202 9.9982e-07 1.89639342419
In 7.565257852020001 3.17570780982 1.89639883919
In 19.81803815202 5.59982e-06 1.87331537419
In 19.81803187202 3.17571240982 1.87332078919
O 9.424221837760001 9.7681e-07 2.64132850502
O 9.424215557760002 3.17570778681 2.64133392002
O 21.676995857759998 5.57681e-06 2.61825045502
O 21.676989577759997 3.17571238681 2.61825587002
O 1.20653324224 -2.84681e-06 3.4234974549799997
O 1.20652696224 3.17570396319 3.4235028699799996
O 13.459307262240001 1.75319e-06 3.4004194049799996
O 13.459300982240002 3.17570856319 3.4004248199799996
O 3.297831687760001 1.58785208181 2.65287023752
O 3.297825407760001 4.76355889181 2.65287565252
O 15.55060570776 1.58785668181 2.62979218752
O 15.55059942776 4.763563491809999 2.62979760252
O 7.33291711224 1.5878528581899998 3.4119611374799996
O 7.3329108322400005 4.76355966819 3.4119665524799996
O 19.58569113224 1.5878574581899998 3.3888830874799996
O 19.58568485224 4.76356426819 3.3888885024799995
O 8.787469450100001 -1.9173e-06 5.39896439715
O 8.787463170100002 3.1757048927 5.39896981215
O 21.040243470100002 2.6827e-06 5.37588634715
O 21.0402371901 3.1757094927 5.37589176215
O 1.8432856299 4.73e-08 0.66586156285
O 1.8432793499 3.1757068573000002 0.66586697785
O 14.0960596499 4.6473e-06 0.64278351285
O 14.096053369900002 3.1757114573000003 0.64278892785
O 2.661079300100001 1.5878491877 5.41050612965
O 2.661073020100001 4.763555997699999 5.41051154465
O 14.9138533201 1.5878537877 5.38742807965
O 14.913847040099999 4.7635605977 5.38743349465
O 7.969669499899999 1.5878557522999999 0.65432524535
O 7.9696632199 4.7635625623 0.65433066035
O 20.2224435199 1.5878603522999999 0.63124719535
O 20.2224372399 4.7635671623 0.63125261035
O -1.15615211634 1.5878486161899998 4.52322307473
O -1.15615839634 4.76355542619 4.52322848973
O 11.09662190366 1.5878532161899999 4.50014502473
O 11.09661562366 4.76356002619 4.50015043973
O 11.78690091634 1.58785632381 1.54160830027
O 11.786894636340001 4.76356313381 1.54161371527
O 24.03967493634 1.58786092381 1.51853025027
O 24.039668656339998 4.76356773381 1.51853566527
O 4.97023803366 -2.48881e-06 4.51168134223
O 4.97023175366 3.17570432119 4.51168675723
O 17.22301205366 2.11119e-06 4.48860329223
O 17.22300577366 3.17570892119 4.48860870723
O 5.66051704634 6.1881e-07 1.5531446177700001
O 5.66051076634 3.17570742881 1.55315003277
O 17.91329106634 5.21881e-06 1.53006656777
O 17.91328478634 3.17571202881 1.53007198277
