80

Al 7.1830462475 2.3920824349999994 7.16515138
Al 2.3928091325 7.167397565 7.180385935
Al 7.1675874375 7.18190718 2.389146595
Al 7.1757612075 7.1748802199999995 7.172007390000001
In 2.3846353625 7.174424525 2.3975251400000004
Al 7.1748724775 2.3991093949999995 2.3822905850000002
Ga 2.4000941725 2.3845997799999994 7.173529925
In 2.3919204025 2.3916267399999995 2.39066913
Al 7.17581222522 4.46176455812 4.776682778820001
Al 2.37740134022 9.244106648119999 0.00905653882
Ga 7.1666476897799996 5.11925201688 -0.00524559882
Al 4.77964246864 7.175130205779999 4.45953173094
Ga 0.01214920364 2.3778228057799997 9.243915060940001
In -0.00219797364 7.16669188422 5.118379344060001
Al 4.4626869489 4.77923117946 7.17333839856
Al 9.2447502939 0.01094300946 2.3752430485600002
In 5.1204534711 -0.00254896446 7.16534290644
In 2.39186938478 5.10474240188 4.78599374118
In 7.17393272978 0.33645423188 -0.01210160882
Ga 2.38468638022 4.46130886312 0.00220052882
In 4.7880391413600005 2.39137675422 5.103144789060001
In -0.01037174364 7.17371884422 0.3355185490600001
Ga 0.00397543364 2.38484976578 4.4610542659400005
Ga 5.1049946611 4.78727578054 2.3893381214400002
Al 0.3375013961 -0.01003161946 7.1737214514400005
Al 4.4617982189 0.00346035446 2.38362159356
In 2.39915442478 0.32194461688 4.7791377311800005
In 4.779865371360001 2.3984037142199996 0.3202839940600001
Ga 0.3220425861 4.77979312554 2.39771666644
Al 7.168527185219999 9.24456234312 4.7835387888200005
In 4.78781623864 7.168103245779999 9.24239252594
In 9.2456390239 4.7867138344599995 7.164959853560001
O 5.9358876579599995 3.74020698855 6.270085367060001
O 3.6358589594799997 8.51677096219 8.07931873758
O 8.41167268952 5.836424763409998 1.4858569490200002
O 5.93578471804 5.822864685849999 8.07143024634
O 6.27259156094 5.934991414039999 3.7377059430500004
O 8.08265213034 3.6350349955199994 8.514125520330001
O 1.4894150288599999 8.411499852679999 5.834976919870001
O 8.074545304859999 5.93474113776 5.81988291675
O 3.74084602497 6.27216869973 5.9331904487300005
O 8.517135515329999 8.081356262689999 3.6316165818900004
O 5.837748530069999 1.48897933311 8.40976900651
O 5.82347395463 8.073763104469998 5.93211526287
O 3.6317939520399998 5.826299971449999 3.29259115294
O 5.93182265052 1.0497359978099998 1.4833577824200002
O 1.1560089204799997 3.7300821965899997 8.07681957098
O 3.63189689196 3.74364227415 1.49124627366
O 3.2950900490599997 3.6315155459599997 5.82497057695
O 1.4850294796599999 5.93147196448 1.04855099967
O 8.07826658114 1.1550071073199997 3.7276996001300002
O 1.49313630514 3.6317658222399998 3.7427936032500004
O 5.8268355850299995 3.2943382602699995 3.6294860712700006
O 1.05054609467 1.48515069731 5.931059938110001
O 3.72993307993 8.07752762689 1.15290751349
O 3.7442076553700003 1.4927438555299999 3.6305612571300006
O 1.1374767729599997 8.52254907855 1.50245912706
O 8.41792230448 3.74848279219 3.28122338758
O 3.64417942452 1.03911736341 6.270240279020001
O 1.1519439130399998 1.0396112058499998 3.29009198634
O 1.5050982959399999 1.1376840140399997 8.522089273050002
O 3.2842412453399996 8.41737708552 3.7464992803300006
O 6.271478373860001 3.6432116826799996 1.03688156987
O 3.29070449986 1.1514876577599997 1.03854465675
O 8.522909369969998 1.50388052973 1.1350950987300001
O 3.7496422503300004 3.2840488626899993 8.415999911890001
O 1.03933764507 6.27132142311 3.64214276651
O 1.03963314963 3.2905096244699994 1.15077700287
O 8.43020483704 1.04395788145 8.06021739294
O 1.1497593055199997 5.818024167809999 6.281453132420001
O 5.923502185479999 8.52738959659 3.29243624098
O 8.41573769696 8.526895754149999 6.272584533660001
O 8.06258331406 8.42882294596 1.0405872469500002
O 6.2834403646600006 1.1491298744799996 5.81617723967
O 3.2962032361399998 5.92329527732 8.52579495013
O 6.276977110140001 8.41501930224 8.52413186325
O 1.04477224003 8.062626430269999 8.42758142127
O 5.81803935967 6.282458097309999 1.1466766081100002
O 8.528343964929999 3.2951855368899996 5.92053375349
O 8.52804846037 6.27599733553 8.411899517130001
