80

Al -0.07216821 -0.0366485775 5.8948794775
Al -0.21650463 -0.1099457325 17.6846384325
Al 4.44126197 2.8142649275000005 5.9671101425
Al 4.29692555 2.7409677725000003 17.7568690975
Ga 3.007678835 0.0858231375 5.9334484575
Ga 2.863342415 0.0125259825 17.7232074125
Ga 1.361414925 2.6917932125000004 5.9285411625
Al 1.2170785050000001 2.6184960575000003 17.7183001175
Al 0.0 0.0 0.0
Al -0.14433642 -0.073297155 11.789758955
Ga 4.51343018 2.8509135050000003 0.072230665
Al 4.36909376 2.77761635 11.86198962
Al 3.079847045 0.122471715 0.03856898
Al 2.935510625 0.04917456 11.828327935
Al 1.4335831350000001 2.72844179 0.033661685
Al 1.2892467150000002 2.655144635 11.82342064
Al -0.1069706073075 1.7596351858545 2.957023576937
Al -0.2513070273075 1.6863380308545 14.746782531937
Al -1.7532345173075001 4.3656052608545 2.952116281937
Al -1.8975709373075 4.2923081058545 14.741875236937
Al 2.9728764376925003 1.8821069008545 2.995592556937
Al 2.8285400176925 1.8088097458544998 14.785351511937
Al 1.3266125276925003 4.488076975854501 2.990685261937
Ga 1.1822761076925004 4.4147798208545 14.780444216937
Ga 1.3962173223074998 0.8955094491455 8.866397063063
Al 1.2518809023075 0.8222122941455 20.656156018063
Ga -0.2500465876925001 3.5014795241455 8.861489768063
Ga -0.3943830076925001 3.4281823691455 20.651248723063
Ga 4.476064367307501 1.0179811641455 8.904966043063
Ga 4.331727947307501 0.9446840091455001 20.694724998063
Al 2.8298004573075 3.6239512391455 8.900058748063
Al 2.6854640373075003 3.5506540841455 20.689817703063
O -0.1306273465455 1.74762178215 4.889365069661499
O -0.2749637665455 1.67432462715 16.679124024661498
O -1.7768912565455002 4.35359185715 4.8844577746615
O -1.9212276765455 4.28029470215 16.6742167296615
O 2.9492196984545003 1.8700934971499998 4.9279340496615
O 2.8048832784545006 1.79679634215 16.7176930046615
O 1.3029557884545002 4.47606357215 4.9230267546615
O 1.1586193684545003 4.4027664171500005 16.7127857096615
O 1.4198740615454999 0.90752285285 6.9340555703385
O 1.2755376415455 0.83422569785 18.7238145253385
O -0.2263898484545001 3.5134929278500002 6.929148275338499
O -0.3707262684545001 3.44019577285 18.718907230338502
O 4.4997211065455005 1.02999456785 6.9726245503385
O 4.3553846865455 0.9566974128500001 18.7623835053385
O 2.8534571965455 3.6359646428500003 6.967717255338499
O 2.7091207765455 3.56266748785 18.7574762103385
O 1.3725605830695 0.883496045441 10.7987385557875
O 1.2282241630694999 0.810198890441 22.588497510787498
O -0.2737033269305001 3.489466120441 10.7938312607875
O -0.4180397469305001 3.416168965441 22.5835902157875
O 4.4524076280695 1.005967760441 10.8373075357875
O 4.3080712080695 0.9326706054410001 22.6270664907875
O 2.8061437180695 3.611937835441 10.8324002407875
O 2.6618072980695002 3.538640680441 22.6221591957875
O -0.0833138680695 1.771648589559 1.0246820842125
O -0.2276502880695001 1.698351434559 12.8144410392125
O -1.7295777780695 4.377618664559 1.0197747892125
O -1.8739141980695 4.304321509559 12.809533744212501
O 2.9965331769305004 1.8941203045589998 1.0632510642125
O 2.8521967569305002 1.820823149559 12.853010019212501
O 1.3502692669305003 4.500090379559 1.0583437692125
O 1.2059328469305004 4.426793224559001 12.8481027242125
O -0.036084105 -0.01832428875 2.94743973875
O -0.180420525 -0.09162144375 14.737198693749999
O 4.477346075000001 2.83258921625 3.01967040375
O 4.333009655000001 2.7592920612500005 14.80942935875
O 3.04376294 0.10414742625 2.98600871875
O 2.89942652 0.03085027125 14.77576767375
O 1.39749903 2.71011750125 2.98110142375
O 1.2531626100000002 2.6368203462500004 14.77086037875
O -0.108252315 -0.05497286625 8.84231921625
O -0.252588735 -0.12827002125 20.63207817125
O 4.405177865000001 2.7959406387500003 8.91454988125
O 4.2608414450000005 2.72264348375 20.70430883625
O 2.97159473 0.06749884875 8.88088819625
O 2.8272583100000004 -0.00579830625 20.67064715125
O 1.32533082 2.6734689237500002 8.87598090125
O 1.1809944 2.60017176875 20.66573985625
