80

Ga 7.330433760000001 2.4390277025 7.315471137499999
Ga 2.443093975 7.3151302325000005 7.3293955225
Ga 7.318169685000001 7.328084077500001 2.4404850675
Ga 7.325013180000001 7.320960862500001 7.3222935975
Ga 2.43625048 7.3222534475000005 2.4475869925
Ga 7.323590265000001 2.4461509175 2.4336626075
In 2.448514555 2.4331970725 7.3225730625
Ga 2.44167106 2.4403202875 2.4407645325
Ga 7.32467032194 4.5515844351200005 4.87751417522
In 2.43048704194 9.43481018012 0.00963003022
In 7.317089628060001 5.222650559880001 -0.00336650022
Ga 4.88016647234 7.322091533620001 4.55297731496
Ga 0.01051134234 2.42720452862 9.435065309959999
Ga -0.00082201734 7.31529214638 5.22400520004
In 4.554793361560001 4.87668248466 7.3229162609
In 9.435289651559998 0.00770316966 2.4271833459
Ga 5.22415495344 -0.00445770966 7.3151279391
Ga 2.4420139180600002 5.209696714880001 4.88554395478
Ga 7.322510208060001 0.34071739988 -0.01018896022
Ga 2.43590762194 4.55287702012 0.00280757022
In 4.88651776766 2.43918961638 5.21008081504
In -0.00766551234 7.32241536138 0.34219667004
In 0.00366784734 2.43432774362 4.55325677996
Ga 5.21189087844 4.88459866534 2.4401418691
In 0.34223574844 -0.01028833966 7.3222298641
Ga 4.553370446560001 0.00187253966 2.4342852709
In 2.4474344980600002 0.32776355488 4.87872149478
Ga 4.879674272660001 2.44631283138 0.32827228504
In 0.3299716734400001 4.87876803534 2.4472437941
In 7.31924974194 9.43351759512 4.8843366352199995
In 4.88700996734 7.314968318620001 9.434785844959999
Ga 9.436712566559999 4.88251311466 7.3158143359
O 6.05831958608 3.8155560542400004 6.40146156808
O 3.7121509418 8.692012183000001 8.247252959359999
O 8.587710704800001 5.9542340546000005 1.51893462964
O 6.05852936732 5.94140058316 8.23999616792
O 6.40370809085 6.05567655083 3.81671639526
O 8.248755085329998 3.70741773591 8.69257982066
O 1.5219539480700002 8.58534544229 5.95583451854
O 8.242293475750001 6.054763145969999 5.942514590539999
O 3.81903495115 6.40082307198 6.05683993937
O 8.69563114047 8.24567971334 3.70903516493
O 5.95653092193 1.5177279948599998 8.58546147567
O 5.94551358645 8.238972094820001 6.05630874503
O 3.7083646539200004 5.94572509576 3.3615965619199994
O 6.0545332982 1.0692689670000002 1.51580517064
O 1.1789735352 3.8070470954 8.244123500359999
O 3.7081548726799998 3.81988056684 1.5230619620799999
O 3.3629761491499996 3.70560459917 5.94634173474
O 1.51792915467 6.053863414089999 1.0704783093399999
O 8.244730291929999 1.1759357077099999 3.80722361146
O 1.52439076425 3.70651800403 3.82054353946
O 5.947649288849999 3.3604580780199997 3.70621819063
O 1.07105309953 1.51560143666 6.05402296507
O 3.8101533180700002 8.24355315514 1.1775966543299998
O 3.8211706535500003 1.5223090551799998 3.7067493849699997
O 1.1641363060799998 8.698781799239999 1.53357742308
O 8.5926472318 3.8230328680000003 3.3515200443599995
O 3.7180555748 1.0593470496000001 6.40102262464
O 1.1751872473199998 1.06076000816 3.3584671029199997
O 1.53405296085 1.16078954583 8.69880439026
O 3.35457180533 8.59064348091 3.82469567566
O 6.40245023807 3.71636612729 1.06010160354
O 3.3589513557499995 1.17412257097 1.06098552554
O 8.69953124115 1.5318437569799999 1.16110702437
O 3.8259760104700002 3.3507927083399998 8.59112315993
O 1.06234764193 6.40095373986 3.7175773306699997
O 1.06217146645 3.3583315198199997 1.1747796800299999
O 8.602547933919999 1.06249935076 8.229480706919999
O 1.1740370081999998 5.938248282 6.41153808564
O 6.0486286652 8.7019341004 3.3620355053599997
O 8.591496992680002 8.70052114184 6.40459102708
O 8.23263127915 8.600491604170001 1.06425373974
O 6.41211243467 1.17063766909 5.93836245434
O 3.3642340019299994 6.044915022710001 8.70295652646
O 6.4077328842500005 8.58715857903 8.70207260446
O 1.06715299885 8.22943739302 8.60195110563
O 5.94070822953 6.41048844166 1.17193497007
O 8.70433659807 3.3603274101399996 6.04548079933
O 8.70451277355 6.40294963018 8.58827844997
