20

Al 10.74766576251 5.08495e-06 1.1560093601599999
Ga 0.0030091874899999 1.4505e-07 4.43714343984
Al 4.67963589251 1.49782856995 1.1493391601599998
Al 6.071026757489999 1.49782933005 4.44384402984
Ga 9.256044218899998 1.49783080628 3.8389904882500003
Al 1.4946184311000001 1.49782709372 1.7541927017499999
Ga 3.1880266489 1.62128e-06 3.83228989825
Al 7.5626483011 3.60872e-06 1.76086290175
O 8.900618096299999 4.3412e-06 4.97717059855
O 1.8500568537000002 8.888e-07 0.6159822014499999
O 2.8325882263 1.4978278262 4.97050039855
O 7.918074423699999 1.4978300738 0.6226827914499999
O 9.431103454750001 4.50851e-06 2.4494223817
O 1.31957149525 7.2149e-07 3.1437304182999997
O 3.3630735847500004 1.49782799351 2.4427521817
O 7.38758906525 1.4978299064900003 3.1504310082999996
O -0.98079372031 1.4978260085900001 4.14584671159
O 11.731456370310001 1.4978318914100002 1.44733647841
O 5.087236149690001 2.52359e-06 4.15251691159
O 5.66343880031 2.70641e-06 1.44063588841
