40

Ga 0.98024603207 5.993454213880001 -0.02618709809
Ga 4.41771902793 3.1149542911200006 4.83102279309
In 1.7453727171700002 1.4494995716 4.8521626074499995
In 3.6525923428300002 7.6589089334 -0.04732691245
Ga 3.70162730561 1.4415385338700002 7.63466747043
In 1.72864347315 7.686209253750001 2.7574705805899997
Ga 4.38627668211 5.979129779670001 2.7479651535299996
In 1.04399409665 3.1486180079500006 7.64417289749
Ga 1.7360469305200001 7.7730128698100005 6.748241404959999
Ga 3.68409313504 1.3486703344100002 1.89178092466
In 1.02709616832 3.20158912497 1.90078324308
Ga 4.393043897240001 5.92009407925 6.73923908654
Ga 0.9528683328600001 0.30317682315 9.71813995923
Ga 4.501265903659999 8.838856427589999 4.80120401331
In 1.8187397170600001 4.8399726443899995 4.83039356591
Ga 3.6353945194600006 4.3020606063499995 9.68895040663
O 4.49548142493 6.108599170050001 8.64594750361
O 0.9467210827100001 3.02629134913 3.80979350817
O 3.60530865503 1.5379708497700002 3.7995334181500002
O 1.83689385261 7.596919669409999 8.65620759363
O 2.834040101970001 0.09094467429 6.10626628181
O 2.5784456469499997 9.02615640025 1.20993528053
O 5.22430837447 4.621049571290001 1.20973736331
O 0.18817737445 4.4960515032499995 6.1064641990299995
O 5.24992903862 7.60974512326 6.15417255023
O 0.16356978162 1.5079624096200002 1.3372405842500001
O 2.8353593804200004 3.04580772722 1.31654098995
O 2.5781394398199997 6.071899805660001 6.17487214453
O 0.11964674707 7.54179549569 1.15134607405
O 5.29193849401 1.5747665047700001 6.00911186861
O 2.6330328005699997 2.99016734589 6.01962351295
O 2.7785524405100004 6.126394654570001 1.14083442971
O 1.97965137769 1.5702745849400002 8.413192250949999
O 3.4595119159900003 7.562796559220001 3.51691404441
O 0.7881199685900001 6.116100814420001 3.5372991958099997
O 4.651043325090001 3.0169703297400003 8.39280709955
O 4.50662269694 0.01987978804 8.73487516603
O 0.9363677550600001 9.115482420960001 3.85714151297
O 3.5815942403400003 4.564536275520001 3.85744670439
O 1.86139621166 4.57082593348 8.73456997461
