80

In -0.04887074 -0.035388635 5.992309945
Al -0.14661222 -0.106165905 17.976929835
Ga 4.668505895 2.8037091100000002 6.046327165
Ga 4.570764415 2.73293184 18.030947055
Al 3.12935643 0.022364485 6.01836772
Al 3.03161495 -0.048412785 18.002987609999998
Ga 1.490278725 2.74595599 6.020269389999999
In 1.392537245 2.67517872 18.00488928
Al 0.0 0.0 0.0
In -0.09774148 -0.07077727 11.98461989
Al 4.717376635 2.839097745 0.05401722
Ga 4.619635155 2.7683204750000003 12.03863711
Ga 3.17822717 0.05775312 0.026057775
Ga 3.08048569 -0.01302415 12.010677665
Al 1.539149465 2.781344625 0.027959445
In 1.441407985 2.7105673550000002 12.012579335
Al -0.0577414523919999 1.8171008946289997 3.0061076821294996
Ga -0.155482932392 1.7463236246289997 14.990727572129499
Al -1.6968191573920002 4.540692399628999 3.0080093521294997
Ga -1.7945606373920002 4.469915129628999 14.9926292421295
Al 3.120485717607999 1.8748540146289998 3.0321654571295
Ga 3.022744237607999 1.8040767446289998 15.016785347129499
Al 1.4814080126079991 4.598445519628999 3.0340671271294997
Al 1.383666532607999 4.5276682496289995 15.0186870171295
Ga 1.4991494373919998 0.8934664603709999 9.0064716528705
Ga 1.401407957392 0.8226891903709999 20.9910915428705
Ga -0.1399282676080002 3.6170579653709996 9.008373322870499
Ga -0.2376697476080002 3.5462806953709998 20.9929932128705
Al 4.6773766073920005 0.951219580371 9.0325294278705
Al 4.579635127392001 0.880442310371 21.017149317870498
In 3.0382989023920004 3.6748110853709997 9.034431097870499
Al 2.940557422392 3.604033815371 21.0190509878705
O -0.0737612809639999 1.8055005000759996 4.9703868821005
O -0.1715027609639999 1.7347232300759996 16.9550067721005
O -1.7128389859640003 4.5290920050759995 4.972288552100499
O -1.8105804659640001 4.458314735076 16.9569084421005
O 3.1044658890359993 1.8632536200759997 4.9964446571005
O 3.006724409035999 1.7924763500759997 16.981064547100498
O 1.465388184035999 4.586845125076 4.998346327100499
O 1.3676467040359992 4.516067855076 16.982966217100497
O 1.515169265964 0.905066854924 7.042192452899499
O 1.4174277859639999 0.834289584924 19.0268123428995
O -0.1239084390360002 3.6286583599239997 7.044094122899499
O -0.2216499190360002 3.5578810899239994 19.0287140128995
O 4.693396435964 0.9628199749240001 7.068250227899499
O 4.595654955964 0.8920427049240001 19.0528701178995
O 3.0543187309640003 3.6864114799239998 7.070151897899499
O 2.956577250964 3.6156342099239995 19.0547717878995
O 1.48312960882 0.8818660658179999 10.9707508528415
O 1.3853881288199998 0.8110887958179999 22.9553707428415
O -0.1559480961800002 3.6054575708179994 10.9726525228415
O -0.2536895761800002 3.5346803008179997 22.957272412841498
O 4.66135677882 0.939619185818 10.9968086278415
O 4.56361529882 0.868841915818 22.981428517841497
O 3.02227907382 3.6632106908179995 10.9987102978415
O 2.9245375938200002 3.5924334208179998 22.9833301878415
O -0.0417216238199999 1.8287012891819996 1.0418284821585
O -0.13946310382 1.7579240191819996 13.0264483721585
O -1.6807993288200003 4.552292794182 1.0437301521584998
O -1.7785408088200003 4.481515524181999 13.0283500421585
O 3.136505546179999 1.8864544091819997 1.0678862571585
O 3.0387640661799993 1.8156771391819997 13.0525061471585
O 1.497427841179999 4.610045914182 1.0697879271584998
O 1.399686361179999 4.539268644181999 13.0544078171585
O -0.02443537 -0.0176943175 2.9961549725
O -0.12217685 -0.0884715875 14.980774862499999
O 4.692941265 2.8214034275 3.0501721925
O 4.595199785 2.7506261575 15.0347920825
O 3.1537918 0.0400588025 3.0222127475
O 3.0560503199999998 -0.0307184675 15.006832637499999
O 1.514714095 2.7636503075 3.0241144175
O 1.416972615 2.6928730375 15.0087343075
O -0.07330611 -0.0530829525 8.9884649175
O -0.17104759 -0.1238602225 20.973084807499998
O 4.644070525 2.7860147925 9.0424821375
O 4.546329045 2.7152375225000003 21.0271020275
O 3.10492106 0.0046701675 9.0145226925
O 3.00717958 -0.0661071025 20.9991425825
O 1.4658433549999998 2.7282616725 9.016424362499999
O 1.368101875 2.6574844025 21.001044252499998
