80

In 1.62203084798 7.3591617421999995 6.445525855999999
Al 6.66010886298 7.340189207199999 6.427733855999999
Al 3.4774133314799998 1.27749173656 1.81229416848
Ga 8.51549134648 1.25851920156 1.79450216848
Al 0.96490459412 3.0329896965399996 1.818534224
Al 6.00298260912 3.0140171615399995 1.800742224
Al 4.13453958534 5.603663782219999 6.439285800479999
Ga 9.17261760034 5.584691247219999 6.421493800479999
Al 0.9230878347449999 5.684107350155 -0.01183630992
Al 5.961165849745 5.665134815155 -0.02962830992
Al 4.163558795254999 2.947255874845 4.61666802992
Al 9.201636810255001 2.928283339845 4.5988760299199996
Al 1.6385714228750001 1.3663156501849998 4.62798330608
Al 6.676649437874999 1.3473431151849997 4.61019130608
In 3.4805562971250006 7.278474614814999 9.24839233392
In 8.518634312124998 7.2595020798149985 9.23060033392
Al 0.87981555753 0.2695348942799999 9.258888872879998
Al 5.91789357253 0.25056235928 9.24109687288
Ga 4.2392472002899995 8.375228516639998 4.59894367928
Al 9.27732521529 8.356255981639997 4.5811516792799996
Al 1.70598384199 4.581520998539999 4.61362490488
Al 6.74406185699 4.56254846354 4.59583290488
Ga 3.41307891583 4.063242412379999 9.24420764728
Al 8.451156930829999 4.04426987738 9.22641564728
Al 3.481721565095 1.354619585685 7.28245327136
Ga 8.519799580095 1.335647050685 7.26466127136
Al 1.6235692105650001 7.284450760274998 2.6442446587199995
Al 6.661647225565 7.2654782252749985 2.6264526587199994
Al 4.136595197045 5.667250756134999 2.6377942313599996
Ga 9.174673212045 5.6482782211349996 2.6200022313599995
Ga 0.968695578615 2.971819589825 7.2889036987199995
In 6.006773593615001 2.952847054825 7.2711116987199995
O 4.227199766635 5.778845393765 8.255942979999999
O 9.265277781635 5.759872858765 8.238150979999999
O 0.884977000105 2.863071484675 3.6363222611199997
O 5.9230550151050005 2.8440989496749998 3.6185302611199996
O 3.398778860265 1.453318414295 3.6295562759999997
O 8.436856875264999 1.4343458792950001 3.6117642759999997
O 1.7133979064750002 7.188598464144999 8.26270896512
O 6.7514759214749995 7.169625929144999 8.24491696512
O 2.665712516115 0.076277627445 5.822341991519999
O 7.703790531115 0.057305092445 5.804549991519999
O 2.4293142351049997 8.558549773874999 1.17454805984
O 7.467392250105 8.539577238875 1.15675605984
O 4.932771112865001 4.382837586695 1.1719895115199999
O 9.970849127865002 4.363865051695 1.1541975115199998
O 0.162255638355 4.251989814624999 5.82490053984
O 5.200333653354999 4.233017279624999 5.80710853984
O 0.106236696005 7.149615676294999 1.11071633984
O 5.144314711004999 7.130643141295 1.09292433984
O 4.988270357775 1.4849968923849997 5.7378290087999995
O 10.026348372774999 1.4660243573849998 5.720037008799999
O 2.474209873055 2.825600984845 5.74470017984
O 7.512287888055 2.806628449845 5.72690817984
O 2.620297180725 5.809011583835 1.1038451688
O 7.658375195724999 5.790039048834999 1.0860531688
O 4.94472870445 7.207549717899998 5.88697241656
O 9.98280671945 7.188577182899999 5.86918041656
O 0.15088270639 1.4275193701399997 1.27680542536
O 5.18896072139 1.40854683514 1.25901342536
O 2.67541748579 2.8874488834400003 1.26567422456
O 7.713495500790001 2.86847634844 1.24788222456
O 2.4201939250499995 5.7476202046000004 5.898103617359999
O 7.4582719400499995 5.7286476696 5.880311617359999
O 1.852370559255 1.4741945123049998 8.02049892192
O 6.890448574254999 1.455221977305 8.00270692192
O 3.2580522286250004 7.1669973059749985 3.37110294752
O 8.296130243625 7.148024770974999 3.35331094752
O 0.733840729925 5.7935040150749995 3.3821026659199998
O 5.771918744925 5.774531480075 3.3643106659199997
O 4.376582057955 2.8476878032049995 8.009499203519999
O 9.414660072955 2.8287152682049994 7.991707203519999
O 4.2410985296099994 0.00486691898 8.329502267759999
O 9.279176544610001 -0.01410561602 8.311710267759999
O 0.8715329723899999 8.637237938019998 3.69256458824
O 5.90961098739 8.618265403019999 3.6747725882399997
O 3.3744726010300004 4.323227795 3.69021641176
O 8.412550616029998 4.30425526 3.67242441176
O 1.73815890097 4.318877061999999 8.331850444239999
O 6.77623691597 4.299904527 8.314058444239999
