80

Al 10.868340243350001 8.490765e-06 1.16884810823
Al 10.868330243350002 3.075078870765 1.1688584432299998
Al 23.15025514335 1.8575765e-05 1.15500477823
Ga 23.150245143350002 3.075088955765 1.15501511323
In -0.02993949335 -1.705765e-06 4.58039000177
Al -0.0299494933500001 3.075068674235 4.58040033677
Ga 12.25197540665 8.379235e-06 4.56654667177
Ga 12.251965406650001 3.075078759235 4.56655700677
Ga 4.72737779335 1.537538638265 1.1757749407299998
Ga 4.727367793349999 4.612609018265 1.1757852757299998
In 17.00929269335 1.537548723265 1.16193161073
Ga 17.009282693350002 4.612619103265001 1.1619419457299998
Al 6.11101295665 1.5375385267350001 4.57347350427
In 6.111002956649999 4.612608906735 4.57348383927
Ga 18.392927856649997 1.5375486117350001 4.55963017427
Al 18.392917856649998 4.612618991735 4.55964050927
In 9.338834724 1.5375414076850002 3.94183679481
Al 9.338824724 4.612611787685 3.94184712981
Ga 21.620749624 1.5375514926850002 3.92799346481
Ga 21.620739624 4.612621872685001 3.92800379981
Ga 1.499556026 1.537535757315 1.80741165019
Ga 1.499546026 4.612606137315001 1.80742198519
Al 13.781470926000003 1.5375458423150001 1.79356832019
Ga 13.781460926000003 4.612616222315001 1.79357865519
Al 3.197882274000001 1.175185e-06 3.94875329231
Ga 3.197872274000001 3.075071555185 3.94876362731
Ga 15.479797174000002 1.1260185e-05 3.93490996231
Al 15.479787174000002 3.075081640185 3.93492029731
Ga 7.640518476000001 5.609815e-06 1.80048481769
Ga 7.640508476000002 3.075075989815 1.80049515269
Ga 19.922433376 1.5694815e-05 1.7866414876899999
Ga 19.922423376 3.075086074815 1.78665182269
O 9.526327938749999 6.898195e-06 2.50701815537
O 9.52631793875 3.075077278195 2.5070284903699998
O 21.80824283875 1.6983195e-05 2.4931748253699997
O 21.80823283875 3.075087363195 2.49318516037
O 1.31207281125 -1.13195e-07 3.2422199546299995
O 1.31206281125 3.075070266805 3.2422302896299997
O 13.593987711250001 9.971805e-06 3.2283766246299996
O 13.593977711250002 3.075080351805 3.2283869596299994
O 3.3853654887500007 1.537537045695 2.51394498787
O 3.38535548875 4.612607425695 2.51395532287
O 15.667280388749997 1.537547130695 2.5001016578699997
O 15.667270388749998 4.612617510695 2.50011199287
O 7.453025261250001 1.537540119305 3.2353034571299997
O 7.453015261250002 4.612610499305 3.2353137921299995
O 19.734940161249998 1.537550204305 3.2214601271299994
O 19.73493016125 4.6126205843050005 3.2214704621299997
O 8.970671348 5.483975e-06 5.11758330105
O 8.970661348 3.075075863975 5.11759363605
O 21.252586248 1.5568975e-05 5.1037399710499995
O 21.252576248 3.075085948975 5.103750306049999
O 1.8677294020000001 1.301025e-06 0.6316548089499999
O 1.867719402 3.0750716810250003 0.63166514395
O 14.149644302 1.1386025e-05 0.61781147895
O 14.149634302 3.0750817660250003 0.61782181395
O 2.8297088980000003 1.537535631475 5.124510133549999
O 2.8296988979999997 4.612606011475001 5.12452046855
O 15.111623797999998 1.537545716475 5.11066680355
O 15.111613797999999 4.6126160964750005 5.11067713855
O 8.008681852 1.537541533525 0.6247383114499999
O 8.008671852 4.612611913525001 0.62474864645
O 20.290596752 1.537551618525 0.61089498145
O 20.290586752 4.612621998525 0.61090531645
O -1.0234083538499998 1.5375327784400001 4.2819193041
O -1.02341835385 4.61260315844 4.2819296390999995
O 11.25850654615 1.5375428634400001 4.268075974099999
O 11.25849654615 4.61261324344 4.2680863091
O 11.86179910385 1.53754438656 1.4673291409
O 11.86178910385 4.61261476656 1.4673394759
O 24.14371400385 1.53755447156 1.4534858109
O 24.14370400385 4.612624851560001 1.4534961459
O 5.11755409615 2.63094e-06 4.2749924716
O 5.1175440961500005 3.07507301094 4.2750028066
O 17.399468996150002 1.271594e-05 4.2611491416
O 17.399458996150003 3.07508309594 4.2611594766
O 5.720846653850001 4.15406e-06 1.4742456384
O 5.720836653850001 3.07507453406 1.4742559734
O 18.00276155385 1.423906e-05 1.4604023084
O 18.00275155385 3.07508461906 1.4604126434
