80

Al 7.242272405 2.4111014425 7.22640322
In 2.4128952900000002 7.227362822500001 7.24058914
In 7.22857838 7.2408551675 2.410155235
Ga 7.235891175 7.233994042500001 7.233063254999999
Ga 2.405582495 7.2342239475 2.41768112
Ga 7.23495961 2.4179625675 2.4034952
Al 2.4192765200000004 2.4044702225 7.233929105
Al 2.411963725 2.4113313475 2.411021085
Ga 7.235859316139999 4.4980216082 4.817826345119999
In 2.39916940614 9.321144113199999 0.00910424512
In 7.22767867386 5.1607961268 -0.00417591012
Ga 4.8202395649400005 7.234575551500001 4.49741444214
Al 0.01093770494 2.3981906065 9.321188312139999
Ga -0.00176177994 7.227011218500001 5.16085581786
Al 4.499620127320001 4.818781209540001 7.23400794018
Ga 9.321684447320001 0.00938095454 2.39691400018
In 5.161928797680001 -0.00320954454 7.22632438482
Ga 2.41199558386 5.1473037818 4.82625799488
In 7.2340599038599995 0.3379035268000001 -0.01083594512
Ga 2.40555063614 4.4982515132000005 0.00244421012
In 4.82761533506 2.4107498385 5.14666989786
Al -0.00907457494 7.233872343500001 0.33794779786
In 0.00362490994 2.4050517315 4.4982802921400005
In 5.148234772680001 4.82654418046 2.41007639982
Ga 0.33893291268 -0.00984076454 7.23385026982
Al 4.498688562320001 0.00274973454 2.40443988518
In 2.4183768138599997 0.3244111818000001 4.81959795988
In 4.82030254006 2.4176109635 0.32376187786
In 0.32523888768 4.81991296046 2.41760228482
In 7.229478086139999 9.3209142082 4.82448638012
Al 4.82755235994 7.227714426500001 9.32032246214
Al 9.32261601232 4.825412429540001 7.22648205518
O 5.98511916258 3.7707229300000003 6.32353137221
O 3.6664495187000004 8.5878527614 8.14721724753
O 8.482982011499999 5.883813463 1.49961366727
O 5.985086557220001 5.870924320600001 8.13984856299
O 6.325576481610001 5.9837215848900005 3.76989855392
O 8.14939871977 3.6643653506100002 8.58678002436
O 1.50245073563 8.48200306639 5.88367555384
O 8.14221131299 5.98322347311 5.869856717879999
O 3.77227847411 6.324312910240001 5.98325866865
O 8.589364875029998 8.147645087839999 3.6632411072099997
O 5.88528856337 1.5007437371599999 8.48122951819
O 5.872705337489999 8.14061173976 5.98248155595
O 3.6627357374200002 5.87460246 3.3205529677899994
O 5.9814053813 1.0574726286 1.49686709247
O 1.1648728885 3.7615119270000004 8.14447067273
O 3.66276834278 3.7744010694000005 1.5042357770099999
O 3.3222784183899994 3.66160380511 5.87418578608
O 1.49845618023 5.98096003939 1.05730431564
O 8.14540416437 1.16332232361 3.76040878616
O 1.50564358701 3.66210191689 3.77422762212
O 5.87557642589 3.32101247976 3.66082567135
O 1.05849002497 1.49768030216 5.98084323279
O 3.76256633663 8.144581652840001 1.1628548218099999
O 3.7751495625100002 1.50471365024 3.66160278405
O 1.1484292525799997 8.593845435 1.51480927221
O 8.4885138387 3.7784525064000003 3.3101233075299996
O 3.6736801515 1.047428518 6.32338753727
O 1.1611591072199998 1.0482616256 3.3178063929899997
O 1.51627462161 1.1473366398900002 8.59367242392
O 3.3127088097699993 8.48748785561 3.77805792436
O 6.324515055630001 3.6726028113900004 1.04658161384
O 3.3182838629899996 1.16056077811 1.04781454788
O 8.59434279411 1.51491265524 1.1461647286499999
O 3.78006301503 3.31126014284 8.48701497721
O 1.04859865337 6.32386624216 3.67250741819
O 1.04877788749 3.3179490447599997 1.16043938595
O 8.49942564742 1.051479955 8.12927506779
O 1.1593410613 5.866872883600001 6.33396103247
O 5.974174748499999 8.597896872000002 3.3206968027299997
O 8.48669579278 8.597063764400001 6.32627794701
O 8.13158027839 8.497988750109998 1.05041191608
O 6.33514609023 1.15783753439 5.8660264156399995
O 3.3233398443699995 5.97272257861 8.59750272616
O 6.32957103701 8.48476461189 8.59626979212
O 1.05351210589 8.130412734760002 8.49791961135
O 5.86779188497 6.33406524716 1.15706936279
O 8.59925624663 3.3214591478399997 5.97157692181
O 8.59907701251 6.32737634524 8.48364495405
