80

Ga 10.795995919575 3.97674e-06 1.202788910105
In 10.795987699575 3.11865531674 1.202801385105
Ga 23.020685644574996 9.38674e-06 1.1902100551049999
Ga 23.020677424574995 3.11866072674 1.190222530105
Al -0.1139746845750003 -3.15674e-06 4.707671694895001
Al -0.1139829045750003 3.11864818326 4.707684169895
Al 12.110715040424997 2.25326e-06 4.6950928398950005
Al 12.110706820424998 3.11865359326 4.695105314895001
In 4.683646947074999 1.55932694174 1.209084575105
In 4.6836387270749995 4.677978281740001 1.209097050105
Al 16.908336672075 1.5593323517400002 1.196505720105
Al 16.908328452074997 4.677983691740001 1.196518195105
Al 5.998366067924999 1.5593252182600001 4.701388504895
Ga 5.998357847924999 4.67797655826 4.701400979895
Al 18.223055792925 1.5593306282600001 4.688809649895
Ga 18.223047572924997 4.67798196826 4.688822124895
Ga 9.222689364584998 1.55932707107 4.052632490005
Ga 9.222681144584998 4.67797841107 4.052644965005
Al 21.447379089585 1.55933248107 4.040053635005
In 21.447370869584997 4.67798382107 4.040066110005
In 1.459323650415 1.5593250889299999 1.8578405899950001
Ga 1.459315430415 4.67797642893 1.857853064995
Al 13.684013375414999 1.55933049893 1.845261734995
In 13.684005155414999 4.67798183893 1.845274209995
Al 3.110348612085 -1.30393e-06 4.058915680005001
In 3.1103403920850003 3.11865003607 4.058928155005001
Al 15.335038337084999 4.10607e-06 4.0463368250050005
Ga 15.335030117084997 3.11865544607 4.046349300005001
In 7.571672622915001 2.12393e-06 1.851544924995
Ga 7.571664402915001 3.1186534639300003 1.851557399995
In 19.796362347915 7.53393e-06 1.8389660699950001
In 19.796354127915 3.1186588739300003 1.838978544995
O 9.435672272445 2.46824e-06 2.577965530935
O 9.435664052445 3.11865380824 2.577978005935
O 21.660361997444998 7.87824e-06 2.565386675935
O 21.660353777444996 3.11865921824 2.565399150935
O 1.2463489625549995 -1.64824e-06 3.3324950740649997
O 1.2463407425549997 3.11864969176 3.332507549065
O 13.471038687555 3.76176e-06 3.3199162190649996
O 13.471030467555 3.11865510176 3.3199286940649997
O 3.323323299945 1.55932543324 2.584261195935
O 3.323315079945 4.67797677324 2.584273670935
O 15.548013024945002 1.55933084324 2.571682340935
O 15.548004804945 4.67798218324 2.571694815935
O 7.358689715054999 1.55932672676 3.3262118840649997
O 7.3586814950549995 4.677978066760001 3.326224359065
O 19.583379440055 1.55933213676 3.3136330290649996
O 19.583371220055 4.677983476760001 3.3136455040649997
O 8.834640964274998 4.3225e-07 5.261001775475
O 8.834632744274998 3.11865177225 5.261014250475
O 21.059330689275 5.84225e-06 5.248422920475
O 21.059322469275 3.1186571822499998 5.248435395475
O 1.8473802707249998 3.8775e-07 0.649458829525
O 1.847372050725 3.11865172775 0.649471304525
O 14.072069995725 5.79775e-06 0.636879974525
O 14.072061775725 3.11865713775 0.636892449525
O 2.722291991775 1.55932339725 5.267297440475
O 2.7222837717750004 4.6779747372500005 5.267309915475
O 14.946981716774998 1.55932880725 5.2547185854750005
O 14.946973496774996 4.67798014725 5.254731060475
O 7.959721023224999 1.5593287627499999 0.643175639525
O 7.959712803224999 4.67798010275 0.643188114525
O 20.184410748225 1.5593341727499999 0.630596784525
O 20.184402528225 4.67798551275 0.630609259525
O -1.09730803917 1.55932228127 4.40077424086
O -1.09731625917 4.6779736212700005 4.40078671586
O 11.127381685829999 1.55932769127 4.38819538586
O 11.127373465829999 4.6779790312700005 4.38820786086
O 11.779321054169998 1.55932987873 1.5096988391400001
O 11.779312834169998 4.67798121873 1.50971131414
O 24.004010779170002 1.55933528873 1.49711998414
O 24.00400255917 4.67798662873 1.4971324591400001
O 5.01504093333 -6.8373e-07 4.39447857586
O 5.01503271333 3.11865065627 4.39449105086
O 17.239730658329997 4.72627e-06 4.38189972086
O 17.239722438329995 3.11865606627 4.38191219586
O 5.66698030167 1.50373e-06 1.5159820291400001
O 5.66697208167 3.11865284373 1.51599450414
O 17.89167002667 6.91373e-06 1.50340317414
O 17.891661806669998 3.11865825373 1.5034156491400001
