80

In 7.34294102 2.44453963 7.336607047499999
In 2.4461716149999995 7.333604060000001 7.3452566925
Al 7.33570476 7.342548430000001 2.4485876574999996
In 7.3392074549999995 7.337439480000001 7.3416220275
In 2.4426689199999996 7.33871301 2.4522223225
In 7.339438325 2.44964858 2.4435726774999997
In 2.4499051799999996 2.44070421 7.340241712499999
Al 2.4464024849999997 2.4458131599999997 2.4472073424999996
In 7.339576772419999 4.560826840200001 4.89225633386
In 2.4393046724199996 9.4550002202 0.00787160886
Ga 7.335566312579999 5.231370169800001 -9.599886e-05
Al 4.89070000424 7.3384236536000005 4.56419583784
Al 0.00490042424 2.4365794336 9.45584989284
In -0.00185946924 7.3338934164000005 5.23328317716
In 4.5618298803799995 4.888811036440001 7.341179027219999
In 9.45509659038 0.00485555644 2.4394950122199996
In 5.231016319619999 -0.00356719644 7.33566973278
Al 2.4460331675799996 5.2224257998 4.8965730361399995
In 7.339299877579999 0.3384703198 -0.00511097886
Al 2.4430382374199997 4.5621003702000005 0.00285662886
Al 4.89490993576 2.4448289864 5.2246335321599995
Al -0.00536216424 7.339002366400001 0.34024880716
In 0.00139772924 2.4416883836 4.56281552284
In 5.223780059619999 4.89444160356 2.44765034278
Al 0.33798047962 -0.00740261644 7.339304397779999
Ga 4.56206075038 0.00102013644 2.44312967722
In 2.4497667325799997 0.3295259498000001 4.89155805614
In 4.8914072407599996 2.4499379364 0.33159916216
In 0.33074421962 4.89060618356 2.4512850077799997
In 7.335843207419999 9.4537266902 4.897271313859999
Al 4.89420269924 7.3333147036 9.457230207839999
Al 9.45486572038 4.8926464564400005 7.337544362219999
O 6.06904032961 3.8243006611 6.4190758232
O 3.7179665747299997 8.7134385443 8.26561636552
O 8.60828843707 5.9647083641 1.5263379586799999
O 6.06872950859 5.9556840305000005 8.261043277599999
O 6.41777250897 6.068232686139999 3.8278027720599996
O 8.262848791009999 3.7159739260599998 8.71706331762
O 1.5243223901899998 8.60647768594 5.96740821198
O 8.25908115983 6.067447301860001 5.95979912334
O 3.8257989313999996 6.41614880364 6.071099964529999
O 8.715749657359998 8.262166863240001 3.72069443441
O 5.964717524039999 1.5222645427600001 8.60887814299
O 5.9577587372 8.257551390360002 6.07140088307
O 3.7165696103899997 5.9589519789 3.3697535467999993
O 6.0676433652699995 1.0698140957000002 1.5232130044799999
O 1.17732150293 3.8185442759 8.26249141132
O 3.7168804314099995 3.8275686095 1.5277860924
O 3.36783743103 3.7150199538599997 5.961026597939999
O 1.52276114899 6.0672787139399995 1.07176605238
O 8.261287549809998 1.1767749540599999 3.8214211580199997
O 1.52652878017 3.7158053381399996 3.82903024666
O 5.9598110086 3.3671038363599997 3.7177294054699996
O 1.06986028264 1.52108577676 6.06813493559
O 3.82089241596 8.26098809724 1.1799512270099999
O 3.8278512028 1.5257012496400002 3.71742848693
O 1.1687682296099997 8.7184740411 1.5346910982
O 8.61123328473 3.8294830642999997 3.3639323505199994
O 3.7224888570699997 1.0628641441 6.41799201368
O 1.17592453859 1.0640577105 3.3666285925999997
O 1.53197292897 1.16638846614 8.71945682706
O 3.3625766910099997 8.61014730606 3.8326785926199998
O 6.41758910019 3.72252220594 1.06572419698
O 3.3662761898299993 1.17582098186 1.06538443834
O 8.719065641399999 1.53219332364 1.1694159495299998
O 3.8299500773599995 3.3603226432399995 8.61234848941
O 1.0644454240399999 6.41643792276 3.7244934179899998
O 1.0649537672 3.3659250703599994 1.1769861980699998
O 8.61684171039 1.0647785988999998 8.254138271799999
O 1.17437665527 5.953769575700001 6.4248970194799995
O 6.0631210829299995 8.7203884959 3.3708373563199996
O 8.60968540141 8.7191949295 6.4222007774
O 8.25363701103 8.61686417386 1.0693725429399998
O 6.4230332489899995 1.17310533394 5.9561507773799995
O 3.36802083981 6.06073043406 8.723105173019999
O 6.41933375017 8.60743165814 8.72344493166
O 1.0665442986 8.251059316360001 8.61941342047
O 5.95565986264 6.42292999676 1.1764808805899998
O 8.721164515959998 3.3668147172399996 6.0643359520099995
O 8.720656172799998 6.41732756964 8.61184317193
