80

In 10.662590300135 -1.680245e-06 1.220436218565
Al 10.662581945134999 3.100588339755 1.220463303565
In 22.749134765134997 -2.685245e-06 1.226433453565
In 22.749126410135 3.1005873347549997 1.226460538565
Al -0.1569171451350002 -3.064755e-06 4.712315806435001
In -0.1569255001350003 3.100586955245 4.712342891435001
Al 11.929627319864998 -4.069755e-06 4.7183130414350005
In 11.929618964864998 3.1005859502449997 4.718340126435001
In 4.6193138901349995 1.550293832255 1.217451143565
Al 4.619305535134999 4.650883852254999 1.217478228565
In 16.705858355135 1.550292827255 1.223448378565
In 16.705850000134998 4.650882847254999 1.223475463565
Al 5.886350909864999 1.5502914427449999 4.715327966435001
In 5.886342554864998 4.650881462745 4.715355051435001
In 17.972895374865 1.550290437745 4.7213252014350005
In 17.972887019865 4.650880457744999 4.721352286435001
Al 9.080301998905 1.550291599155 4.070811003075001
Al 9.080293643905 4.650881619154999 4.070838088075001
In 21.166846463905 1.5502905941549998 4.076808238075
Al 21.166838108904997 4.650880614155 4.0768353230750005
Al 1.4253628010950001 1.550293675845 1.861968106925
Al 1.425354446095 4.650883695844999 1.8619951919250002
Al 13.511907266095 1.550292670845 1.8679653419250002
Al 13.511898911094999 4.650882690844999 1.8679924269250001
Al 3.037033943905 -2.908345e-06 4.067798843075001
Al 3.0370255889049997 3.100587111655 4.067825928075001
Al 15.123578408904997 -3.913345e-06 4.073796078075
Al 15.123570053904999 3.100586106655 4.073823163075001
Al 7.468639211095 -1.836655e-06 1.864953181925
Al 7.468630856094999 3.1005881833449997 1.8649802669250002
Al 19.555183676095 -2.841655e-06 1.8709504169250002
Al 19.555175321095003 3.100587178345 1.8709775019250001
O 9.304731510084999 -2.465515e-06 2.5949515565750003
O 9.304723155084998 3.100587554485 2.594978641575
O 21.391275975084998 -3.470515e-06 2.600948791575
O 21.391267620085 3.100586549485 2.600975876575
O 1.2009416449149999 -2.279485e-06 3.337800468425
O 1.200933289915 3.1005877405149995 3.337827553425
O 13.287486109915001 -3.284485e-06 3.343797703425
O 13.287477754915 3.100586735515 3.343824788425
O 3.2614551000849996 1.5502930469849998 2.591966481575
O 3.2614467450849998 4.650883066984999 2.5919935665750002
O 15.347999565085 1.550292041985 2.5979637165750002
O 15.347991210084999 4.6508820619849995 2.597990801575
O 7.244209699915001 1.550292228015 3.3408126284249997
O 7.244201344915001 4.650882248015 3.340839713425
O 19.330754164915 1.550291223015 3.346809863425
O 19.330745809914998 4.650881243014999 3.346836948425
O 8.685289162374998 -4.167775e-06 5.2798194543250005
O 8.685280807374998 3.1005858522249996 5.279846539325001
O 20.771833627375 -5.172775e-06 5.285816689325
O 20.771825272375 3.100584847225 5.285843774325
O 1.820383992625 -5.77225e-07 0.652932570675
O 1.820375637625 3.100589442775 0.652959655675
O 13.906928457625 -1.582225e-06 0.658929805675
O 13.906920102625 3.100588437775 0.6589568906750001
O 2.6420127523749994 1.5502913447249997 5.276834379325001
O 2.642004397374999 4.650881364725 5.276861464325
O 14.728557217374998 1.5502903397249999 5.2828316143250005
O 14.728548862374996 4.650880359724999 5.282858699325001
O 7.863652047625002 1.5502939302749998 0.655944730675
O 7.8636436926250015 4.6508839502749995 0.6559718156750001
O 19.950196512625002 1.550292925275 0.6619419656750001
O 19.950188157625 4.650882945274999 0.661969050675
O -1.12624538297 1.5502922271599997 4.40361634041
O -1.12625373797 4.650882247159999 4.40364342541
O 10.96029908203 1.5502912221599998 4.40961357541
O 10.96029072703 4.65088124216 4.40964066041
O 11.631910182970001 1.5502930478399999 1.52916276959
O 11.631901827970001 4.65088306784 1.5291898545900002
O 23.71845464797 1.5502920428399998 1.5351600045900002
O 23.718446292969997 4.65088206284 1.5351870895900002
O 4.91703102703 -3.28534e-06 4.40660141541
O 4.91702267203 3.10058673466 4.40662850041
O 17.00357549203 -4.29034e-06 4.4125986504100005
O 17.00356713703 3.10058572966 4.41262573541
O 5.588642127969999 -1.45966e-06 1.5261506095900002
O 5.588633772969999 3.10058856034 1.52617769459
O 17.67518659297 -2.46466e-06 1.53214784459
O 17.67517823797 3.1005875553399997 1.5321749295900002
