80

In 7.143411497500001 2.37926926 7.123692395
Al 2.3794337925 7.1269361799999995 7.139917475
Al 7.1265056625000005 7.1423434 2.374877905
In 7.135436122500001 7.13509236 7.130780475
In 2.3705033325000002 7.134187219999999 2.384014905
Al 7.1344810375000005 2.3865203 2.367789825
Ga 2.3874091675 2.37111308 7.132829395
Al 2.3784787075000002 2.37836412 2.376926825
Al 7.1355009055 4.4374103592 4.74880316056
In 2.3625927405000002 9.1923283192 0.00912567056
Ga 7.1254857945 5.0914533408 -0.00613543056
Ga 4.752362456220001 7.13513286072 4.43399631524
Al 0.01326596122 2.36390254072 9.19194780524
In -0.00242533122 7.125990539279999 5.08993606476
Al 4.438014486560001 4.75254809976 7.132426251
In 9.19306173156 0.01213221976 2.3602986009999998
Ga 5.092806178440001 -0.00216575976 7.124095539
In 2.3784139245 5.0760461208 4.75890413944
In 7.1334611695 0.3356302408 -0.01322351056
Al 2.3705681155000002 4.4365052192 0.00203759056
Ga 4.761552373780001 2.3783236192799997 5.07371098476
In -0.01135579122 7.133241579279999 0.33403349476
Ga 0.00433550122 2.3711535807199997 4.43604523524
Al 5.075900343440001 4.76090838024 2.375281049
In 0.3368038484400001 -0.01032193976 7.133232539
Al 4.437059401560001 0.00397603976 2.369435601
Al 2.3863892995000002 0.3202230208 4.75181605944
Al 4.7526219137800005 2.3855746592799996 0.31780841476
Al 0.31989801344 4.75275220024 2.3844180489999998
Al 7.1275255305 9.1932334592 4.75589124056
Al 4.76129291622 7.12788182072 9.18989888524
In 9.194016816560001 4.76070427976 7.123289251
O 5.902922909470001 3.71965396292 6.2339571704
O 3.6154242690300005 8.46883570548 8.033650376719999
O 8.363636397570001 5.804685088119999 1.47639376328
O 5.90280349893 5.790466443480001 8.0252669396
O 6.236969211680001 5.90225123888 3.71591728494
O 8.037984727760001 3.61527183456 8.464982064540001
O 1.4807133672400001 8.36396161744 5.802313607059999
O 8.029119768320001 5.90215650912 5.78605529346
O 3.71980390046 6.23702675036 5.89947361376
O 8.468520868659999 8.036852915159999 3.61016849824
O 5.8060401305400005 1.4809892040400001 8.36147113816
O 5.790422175340001 8.028772330439999 5.89815499984
O 3.6109919205300005 5.7938025170800005 3.2737501296
O 5.89849056097 1.04462077452 1.47405692328
O 1.1502784324300002 3.70877139188 8.031313536719999
O 3.6111113310700005 3.7229900365199997 1.4824403604
O 3.2769456183199996 3.61120524112 5.79179001506
O 1.47593010224 5.89818464544 1.04272523546
O 8.033201462760001 1.1494948625599999 3.70539369294
O 1.48479506168 3.61129997088 3.7216520065400003
O 5.79411092954 3.27642972964 3.60823368624
O 1.0453939613399998 1.47660356484 5.89753880176
O 3.7078746994600005 8.03246727596 1.1462361618399999
O 3.7234926546600002 1.48468414956 3.60955230016
O 1.1300147444700002 8.47457192292 1.4942796804
O 8.370471514030001 3.72841982548 3.2615227267199995
O 3.6245399025700005 1.03345476812 6.23434525328
O 1.14584608393 1.03373820348 3.2714132896
O 1.4978727166799999 1.1310209188799998 8.47386877494
O 3.26507656276 8.37018979456 3.72530457454
O 6.23576061224 3.62354573744 1.03018595706
O 3.2721623533199997 1.1454282691199997 1.03220164346
O 8.47485114546 1.4966108703599998 1.1273459637599998
O 3.72942437366 3.2656225951599995 8.36811998824
O 1.03313196554 6.23590716404 3.62179364816
O 1.03346476034 3.2720440904399997 1.1443013498399999
O 8.383900085530001 1.0388845570799998 8.0134276196
O 1.1434433159700002 5.78503665452 6.24618457328
O 5.889374927430001 8.48000171188 3.2733620467199995
O 8.368068746070001 8.47971827652 6.2362940104
O 8.016042113320001 8.38243556112 1.03383852506
O 6.248838267240001 1.14326668544 5.78240272546
O 3.2781542177599996 5.88991074256 8.47752134294
O 6.24175247668 8.36802821088 8.47550565654
O 1.03906368454 8.016845609639999 8.38036133624
O 5.78449045634 6.2478338848399995 1.13958731176
O 8.48078286446 3.2775493159599995 5.88591365184
O 8.48045006966 6.241412389560001 8.36340595016
