40

Ga 0.95677201537 5.78420157944 -0.01757368783
Ga 4.25139520963 2.99086577056 4.6786080728299995
Ga 1.67920353543 1.389398816 4.69601057655
Ga 3.5289636895700003 7.385668533999999 -0.03497619155
Ga 3.5581718335300003 1.3736092616 7.38828835139
Ga 1.67919734873 7.4133666712399995 2.6774689887099994
Ga 4.228939254429999 5.75873989 2.6671546970899995
Ga 1.00842992783 3.02823604284 7.398602643009999
Ga 1.68517512524 7.492381506519999 6.537915391899999
Ga 3.5430366488199994 1.29086002752 1.8329810912
Ga 0.9942655439200001 3.0862908621999994 1.84298886554
Ga 4.23394623014 5.69695067184 6.527907617559999
Ga 0.9131490952500001 0.27875954778 9.40124017797
Ga 4.345790870769999 8.5170129689 4.65685606973
Ga 1.7580663837700001 4.6626811593 4.67916284993
Ga 3.50087358225 4.133091357379999 9.37893339777
O 4.332206064989999 5.87641757556 8.372567789489999
O 0.91594850915 2.9149566492 3.68935900441
O 3.46714661605 1.47153594812 3.6785849368699997
O 1.78100795809 7.31983827664 8.383341857029999
O 2.72162496791 0.0735832862 5.907853257129999
O 2.49966787551 8.70683670208 1.1824816895699999
O 5.03144996641 4.4473349321999995 1.17783796763
O 0.18984287701 4.33308505608 5.912496979069999
O 5.06175898333 7.32688424894 5.9643658112299995
O 0.16044960091 1.45390917922 1.29545522117
O 2.73179182441 2.93217258702 1.27832092007
O 2.49041675983 5.84862084114 5.98150011233
O 0.13316490359 7.279786468239999 1.12306369309
O 5.08731394799 1.5003015734799998 5.81661695521
O 2.53563044069 2.87332024784 5.82754428139
O 2.68484841089 5.90676779388 1.11213636691
O 1.90343389657 1.50117276084 8.140887560089999
O 3.34197345511 7.289081144279999 3.4125809767099997
O 0.7712379821100002 5.89882026988 3.4295237045099998
O 4.47416936957 2.89143363524 8.123944832289999
O 4.32788563753 -0.00225534418 8.45108185571
O 0.92098117947 8.793920022179998 3.74266744929
O 3.4517924695700004 4.393614198859999 3.7383302446299997
O 1.7970743474300002 4.39805047914 8.45541906037
