80

Ga -0.0472863525 -0.037332845 6.00235632
Al -0.1418590575 -0.111998535 18.007068959999998
Al 4.6858677875 2.814452585 6.056086479999999
Ga 4.5912950825 2.739786895 18.06079912
In 3.1424800225 0.02222106 6.0276083499999995
In 3.0479073175 -0.05244463 18.03232099
Al 1.4961014125 2.75489868 6.0308344499999995
Ga 1.4015287075 2.68023299 18.035547089999998
Ga 0.0 0.0 0.0
Ga -0.094572705 -0.07466569 12.00471264
In 4.73315414 2.85178543 0.05373016
Al 4.638581435 2.77711974 12.0584428
In 3.189766375 0.059553905 0.02525203
Al 3.09519367 -0.015111785 12.02996467
Al 1.543387765 2.792231525 0.02847813
Al 1.44881506 2.7175658350000003 12.03319077
Al -0.0579700248885 1.8227857955284998 3.011745179859
Al -0.1525427298885 1.7481201055284998 15.016457819859
Ga -1.7043486348885 4.5554634155285 3.0149712798589996
Al -1.7989213398885 4.4807977255285 15.019683919858998
Al 3.1317963501115 1.8823397005284999 3.036997209859
Ga 3.0372236451115 1.8076740105284999 15.041709849858998
Ga 1.4854177401114999 4.6150173205285006 3.040223309859
Ga 1.3908450351114998 4.540351630528501 15.044935949859
In 1.5067850848884998 0.8947800394715 9.021445590141
Al 1.4122123798884998 0.8201143494715 21.026158230141
In -0.1395935251114999 3.6274576594715002 9.024671690141
Al -0.2341662301114999 3.5527919694715 21.029384330141
Ga 4.6965514598885 0.9543339444714998 9.046697620141
Ga 4.6019787548885 0.8796682544714998 21.051410260140997
Al 3.0501728498885003 3.6870115644715002 9.049923720140999
Ga 2.9556001448885003 3.6123458744715 21.054636360141
O -0.073470491238 1.8105480889374999 4.979317581555
O -0.168043196238 1.7358823989374998 16.984030221555
O -1.719849101238 4.5432257089375 4.982543681555
O -1.814421806238 4.4685600189375 16.987256321554998
O 3.1162958837619996 1.8701019939374999 5.004569611555
O 3.0217231787619996 1.7954363039374999 17.009282251555
O 1.4699172737619999 4.602779613937501 5.007795711555
O 1.3753445687619998 4.5281139239375 17.012508351555
O 1.5222855512379998 0.9070177460625 7.053873188444999
O 1.4277128462379998 0.8323520560625 19.058585828445
O -0.1240930587619999 3.6396953660625 7.0570992884449995
O -0.2186657637619999 3.5650296760625 19.061811928445
O 4.712051926238 0.9665716510624999 7.079125218444999
O 4.617479221238 0.8919059610624999 19.083837858445
O 3.065673316238 3.6992492710625 7.082351318444999
O 2.971100611238 3.6245835810625002 19.087063958445
O 1.4912846185389999 0.8825423328804999 10.989017991837
O 1.3967119135389998 0.8078766428804999 22.993730631836996
O -0.1550939914609999 3.6152199528805 10.992244091837
O -0.2496666964609999 3.5405542628805002 22.996956731837
O 4.6810509935389994 0.9420962378804998 11.014270021837
O 4.586478288539 0.8674305478804998 23.018982661836997
O 3.034672383539 3.6747738578805 11.017496121837
O 2.940099678539 3.6001081678805003 23.022208761836996
O -0.042469558539 1.8350235021194998 1.044172778163
O -0.137042263539 1.7603578121194998 13.048885418163
O -1.688848168539 4.5677011221195 1.047398878163
O -1.783420873539 4.4930354321195 13.052111518163
O 3.1472968164609996 1.8945774071194998 1.0694248081629998
O 3.0527241114609995 1.8199117171194998 13.074137448163
O 1.5009182064609998 4.6272550271195 1.0726509081629998
O 1.4063455014609998 4.5525893371195005 13.077363548163
O -0.02364317625 -0.0186664225 3.00117816
O -0.11821588125 -0.0933321125 15.0058908
O 4.70951096375 2.8331190075 3.05490832
O 4.61493825875 2.7584533175 15.059620959999998
O 3.1661231987500003 0.0408874825 3.0264301899999997
O 3.07155049375 -0.0337782075 15.031142829999999
O 1.51974458875 2.7735651025 3.0296562899999997
O 1.42517188375 2.6988994125 15.03436893
O -0.07092952875 -0.0559992675 9.003534479999999
O -0.16550223375 -0.1306649575 21.00824712
O 4.66222461125 2.7957861625000002 9.05726464
O 4.56765190625 2.7211204725 21.061977279999997
O 3.1188368462500002 0.0035546375 9.02878651
O 3.02426414125 -0.0711110525 21.033499149999997
O 1.47245823625 2.7362322575 9.032012609999999
O 1.37788553125 2.6615665675 21.03672525
