80

In 1.7339324069000002 7.8125653416 6.77966003078
Ga 7.096823396900001 7.7962091266 6.75057409078
Al 3.70429240632 1.3601693908 1.9017887554400001
In 9.06718339632 1.3438131758 1.8727028154400003
In 1.0284434041400001 3.21818047226 1.9096386473400002
Al 6.391334394139999 3.2018242572599998 1.8805527073400001
Ga 4.409781409080002 5.95455426014 6.77181013888
In 9.772672399080001 5.93819804514 6.74272419888
Ga 0.97818764699 6.022765786355 -0.02700858816
Ga 6.341078636990001 6.006409571355 -0.05609452816
Ga 4.43904656801 3.1360855286450002 4.8549836631600005
In 9.801937558010001 3.119729313645 4.825897723160001
In 1.75250327757 1.4592672638249997 4.875623298360001
In 7.11539426757 1.4429110488249999 4.84653735836
In 3.7180065674300007 7.734821151174999 9.732741906640001
In 9.08089755743 7.718464936174999 9.703655966640001
Al 0.9550192029900001 0.30718168818 9.76472928045
In 6.3179101929899995 0.29082547318 9.73564334045
In 4.5153840907500005 8.886836252619998 4.82407514429
In 9.878275080750003 8.870480037619998 4.79498920429
Ga 1.8217482153500002 4.86567520892 4.853197096290001
Ga 7.184639205350001 4.84931899392 4.824111156290001
In 3.64865507839 4.32834273188 9.735607328450001
In 9.01154606839 4.31198651688 9.706521388450001
Ga 3.7198579983300006 1.4542690602850001 7.672041117560001
Al 9.082748988330001 1.437912845285 7.642955177560001
Al 1.7279564282900002 7.7248083501149996 2.76987789206
Ga 7.09084741829 7.7084521351149995 2.74079195206
Ga 4.40424871703 6.013318692335001 2.76149785536
In 9.76713970703 5.996962477335001 2.73241191536
Ga 1.0435657095900002 3.165758718065 7.680421154260001
In 6.406456699590001 3.149402503065 7.651335214260001
O 4.51194668759 6.144334455685001 8.687609462380001
O 9.87483767759 6.1279782406850005 8.658523522380001
O 0.9471621725900001 3.0422132199150003 3.8277522548000005
O 6.310053162590001 3.025857004915 3.7986663148000006
O 3.6241193911700003 1.550505697655 3.8185770009000004
O 8.98701038117 1.5341494826550002 3.7894910609000005
O 1.8349894690100002 7.636041977944999 8.696784716280002
O 7.197880459009999 7.619685762945 8.66769877628
O 2.8492774897100004 0.095995423845 6.13629706682
O 8.21216847971 0.079639208845 6.10721112682
O 2.58170183783 9.071947062955 1.21501866172
O 7.944592827830001 9.055590847955001 1.1859327217200002
O 5.249793325210001 4.6498110670949995 1.2164463038200002
O 10.61268431521 4.633454852094999 1.18736036382
O 0.18118600233 4.518131419705 6.134869424720001
O 5.54407699233 4.501775204705 6.105783484720001
O 0.10980209015 7.577344432335 1.15558905728
O 5.47269308015 7.560988217335 1.12650311728
O 5.32032482731 1.5900342608649998 6.03924042918
O 10.68321581731 1.5736780458649997 6.0101544891800005
O 2.64314596545 3.008481071285 6.04868075548
O 8.00603695545 2.992124856285 6.0195948154800005
O 2.7869809520100004 6.158897621915 1.14614873098
O 8.14987194201 6.142541406915 1.11706279098
O 5.269853911570001 7.653169827119999 6.183950437510001
O 10.63274490157 7.636813612119999 6.15486449751
O 0.16208437731 1.5154069274800002 1.3434123133700002
O 5.524975367310001 1.49905071248 1.3143263733700001
O 2.8482397920100007 3.06401894658 1.3232365548700002
O 8.21113078201 3.0476627315800005 1.2941506148700002
O 2.58369849687 6.10455780802 6.204126196010001
O 7.946589486870001 6.08820159302 6.175040256010001
O 1.98685026267 1.5814008615850002 8.45368503974
O 7.3497412526699994 1.565044646585 8.42459909974
O 3.4693817134900002 7.603244010615 3.53353561042
O 8.83227270349 7.586887795615 3.50444967042
O 0.7835033528900002 6.146207881315 3.5533800284200003
O 6.146394342890001 6.129851666315 3.52429408842
O 4.672728623269999 3.038436990885 8.43384062174
O 10.03561961327 3.022080775885 8.40475468174
O 4.531352640050001 0.02719718324 8.77800213711
O 9.894243630050001 0.01084096824 8.74891619711
O 0.9285020789500001 9.15984381176 3.8742850418900003
O 6.291393068950001 9.14348759676 3.8451991018900005
O 3.5961502797700007 4.59118639222 3.8762428287900006
O 8.95904126977 4.57483017722 3.8471568887900003
O 1.8637044392300002 4.59585460278 8.77604435021
O 7.2265954292300005 4.57949838778 8.74695841021
