40

Al -0.06118109375 0.07167482 12.573248275000001
In -0.00874015625 0.01023926 1.796178325
Al -0.0545128524558735 3.529605186781538 11.355721705621898
Al 2.9868094524558737 1.7490587332184615 2.9984154543781014
Al 3.0009556 -0.000384945 0.014821945
Ga -1.499846675 2.598759865 -0.022466665
Al 1.5011089250000003 2.59837492 -0.00764472
Al -1.5227329787941262 4.358442803218461 4.757305169378101
In -0.0228863037941263 1.7596829382184616 4.779771834378101
In 1.4782226212058738 4.358057858218461 4.772127114378101
In 1.4540739787941264 0.920606061781538 9.582010045621898
Al 4.455029578794127 0.9202211167815381 9.596831990621899
Ga 2.9551829037941273 3.5189809817815383 9.574365325621898
Al -0.037032540655086 3.509126667600679 7.763365199316165
Al 2.969329140655086 1.7695372523993207 6.590771960683836
In -0.034960625 0.04095704 7.1847133
O 4.377422092955874 0.9754913908184618 13.212640695578102
O 2.9375692849558743 3.470300861218462 13.191072697178102
O 1.4965047169558734 0.9758609380184619 13.198411628378102
O 1.4357918830441267 4.3028029819815385 1.1557255316218986
O -1.4451254929558734 4.303172529181539 1.1414964644218988
O -0.0052726849558734 1.8083630587815382 1.1630644628218987
O -0.05209133125 0.0610259896 10.705222817000001
O -0.01782991875 0.0208880904 3.664203783
O -0.063602615655086 3.5402540180006787 13.223747307316165
O 2.995899215655086 1.7384099019993207 1.1303898526838356
O 1.5087952501550863 2.6250186747993207 10.745973319483836
O 2.9486480581550865 0.130209204399321 10.767541317883836
O 4.389712626155086 2.624649127599321 10.760202386683837
O -1.4574160261550857 2.6540147924006785 3.5939347733161644
O 1.4235013498449143 2.6536452452006785 3.6081638405161645
O -0.0163514581550859 5.148454715600678 3.5865958421161643
O -1.6003405532499992 4.4137131275999995 8.3731135862
O -0.0405000112499999 1.7110028679999998 8.3964789178
O 1.5206532707500013 4.4133127847999996 8.388528409
O 1.4116433292500001 0.8653511352 5.9656087509999995
O 4.53263715325 0.8649507924 5.9810235738
O 2.9727966112499997 3.567661052 5.9576582422
O -0.0279427774558735 3.498477836381538 5.895339597621899
O 2.9602393774558737 1.7801860836184615 8.458797562378102
