80

Al -0.06333698 -0.05494751 5.96345083
In -0.19001094 -0.16484253 17.89035249
Al 4.545048445 2.916280925 6.037579495
Al 4.418374485 2.806385905 17.964481155
Al 3.09865266 0.10036108 5.9976944450000005
Al 2.9719786999999998 -0.00953394 17.924596105
In 1.3830588049999997 2.7609723350000004 6.00333588
Al 1.2563848449999997 2.651077315 17.93023754
In 0.0 0.0 0.0
Al -0.12667396 -0.10989502 11.92690166
Al 4.608385425 2.971228435 0.074128665
Al 4.481711465 2.861333415 12.001030325
Al 3.16198964 0.15530859 0.034243615
Al 3.0353156799999996 0.04541357 11.961145275
In 1.4463957849999998 2.8159198450000003 0.03988505
In 1.3197218249999998 2.706024825 11.966786710000001
Al -0.1213922067310001 1.79785406063 2.9968993924505
Al -0.2480661667310001 1.68795904063 14.9238010524505
Al -1.8369860617310005 4.458465315630001 3.0025408274505
Al -1.9636600217310005 4.348570295630001 14.929442487450501
Al 3.040597433269 1.95316265063 3.0311430074505
Al 2.9139234732689996 1.84326763063 14.958044667450501
Al 1.3250035782689995 4.6137739056300004 3.0367844424505
In 1.1983296182689995 4.503878885630001 14.9636861024505
Al 1.4411140317309996 0.9081707643699999 8.9698873175495
Al 1.3144400717309996 0.7982757443699999 20.8967889775495
Al -0.2744798232690002 3.5687820193700004 8.9755287525495
In -0.4011537832690002 3.45888699937 20.9024304125495
In 4.603103671731 1.0634793543699999 9.0041309325495
Al 4.476429711731 0.9535843343699999 20.9310325925495
Al 2.887509816731 3.72409060937 9.0097723675495
Al 2.7608358567309996 3.61419558937 20.9366740275495
O -0.1421540687750001 1.779842266852 4.9517185745245005
O -0.2688280287750001 1.669947246852 16.8786202345245
O -1.8577479237750005 4.4404535218520005 4.9573600095245
O -1.9844218837750005 4.330558501852001 16.8842616695245
O 3.019835571225 1.935150856852 4.9859621895245
O 2.8931616112249996 1.825255836852 16.9128638495245
O 1.3042417162249995 4.595762111852 4.9916036245245
O 1.1775677562249995 4.4858670918520005 16.9185052845245
O 1.4618758937749996 0.9261825581479999 7.0150681354755
O 1.3352019337749996 0.8162875381479999 18.9419697954755
O -0.2537179612250002 3.586793813148 7.0207095704755
O -0.3803919212250002 3.476898793148 18.947611230475502
O 4.623865533775 1.0814911481479998 7.0493117504755
O 4.497191573775 0.9715961281479999 18.976213410475502
O 2.908271678775 3.742102403148 7.0549531854755
O 2.7815977187749996 3.6322073831479997 18.981854845475503
O 1.4203521696869996 0.8901589705919999 10.9247064996235
O 1.2936782096869996 0.7802639505919999 22.8516081596235
O -0.2952416853130002 3.550770225592 10.930347934623502
O -0.4219156453130002 3.440875205592 22.8572495946235
O 4.582341809687 1.0454675605919999 10.958950114623502
O 4.455667849687 0.9355725405919999 22.8858517746235
O 2.866747954687 3.706078815592 10.964591549623501
O 2.7400739946869996 3.5961837955919997 22.8914932096235
O -0.1006303446870001 1.815865854408 1.0420802103765
O -0.2273043046870001 1.7059708344079998 12.968981870376501
O -1.8162241996870006 4.476477109408001 1.0477216453765
O -1.9428981596870005 4.366582089408 12.974623305376502
O 3.0613592953129998 1.971174444408 1.0763238253765
O 2.9346853353129996 1.8612794244079998 13.0032254853765
O 1.3457654403129995 4.631785699408001 1.0819652603765
O 1.2190914803129995 4.521890679408 13.008866920376501
O -0.03166849 -0.027473755 2.981725415
O -0.15834245 -0.137368775 14.908627075
O 4.576716934999999 2.94375468 3.05585408
O 4.450042975 2.83385966 14.98275574
O 3.13032115 0.127834835 3.01596903
O 3.0036471899999997 0.017939815 14.942870690000001
O 1.4147272949999998 2.7884460900000003 3.021610465
O 1.2880533349999999 2.67855107 14.948512125
O -0.09500547 -0.082421265 8.945176245
O -0.22167943 -0.192316285 20.872077905
O 4.5133799549999996 2.88880717 9.01930491
O 4.386705995 2.77891215 20.94620657
O 3.06698417 0.072887325 8.97941986
O 2.94031021 -0.037007695 20.906321520000002
O 1.3513903149999997 2.7334985800000005 8.985061295
O 1.2247163549999998 2.6236035600000003 20.911962955
