80

Al 10.796719974375002 3.415545e-06 1.21266303051
Al 10.796712509375002 3.140588170545 1.2126730605099998
Al 23.029396049375002 8.370545e-06 1.19637962051
Ga 23.029388584375003 3.140593125545 1.1963896505099998
Ga -0.138593059375 -3.770545e-06 4.75868599949
In -0.138600524375 3.140580984455 4.75869602949
Ga 12.094083015625 1.184455e-06 4.74240258949
In 12.094075550625 3.140585939455 4.74241261949
Al 4.680378204375001 1.570293315545 1.2208097505099997
Ga 4.680370739375 4.710878070545 1.2208197805099998
Al 16.913054279375 1.570298270545 1.2045263405099997
In 16.913046814375 4.710883025545 1.2045363705099998
Ga 5.977741245625 1.570291084455 4.75054930949
In 5.977733780625 4.710875839455 4.75055933949
Al 18.210417320625 1.5702960394549998 4.7342658994899995
Al 18.210409855625002 4.710880794455 4.73427592949
Al 9.207536122815 1.5702929019949998 4.09382652103
Ga 9.207528657815 4.710877656995 4.09383655103
Al 21.440212197815 1.570297856995 4.07754311103
In 21.440204732815 4.710882611995 4.07755314103
In 1.4505833271850004 1.5702914980049998 1.87753253897
In 1.4505758621850005 4.710876253005 1.8775425689699998
Al 13.683259402185001 1.5702964530049999 1.86124912897
In 13.683251937185002 4.710881208005 1.8612591589699998
In 3.091201817815 -1.953005e-06 4.10196321103
Ga 3.0911943528149997 3.140582801995 4.1019732410300005
Ga 15.323877892815002 3.001995e-06 4.08567980103
Al 15.323870427815002 3.140587756995 4.08568983103
In 7.566925097185002 1.598005e-06 1.86938581897
In 7.566917632185002 3.140586353005 1.8693958489699998
Ga 19.799601172185 6.553005e-06 1.85310240897
In 19.799593707185 3.140591308005 1.8531124389699998
O 9.428345131105 1.777315e-06 2.6031289962099997
O 9.428337666105001 3.140586532315 2.60313902621
O 21.661021206105 6.732315e-06 2.58684558621
O 21.661013741105002 3.1405914873149996 2.58685561621
O 1.229781783895 -2.132315e-06 3.3682200337899992
O 1.229774318895 3.1405826226849998 3.3682300637899996
O 13.462457858895 2.822685e-06 3.3519366237899995
O 13.462450393895 3.140587577685 3.3519466537899993
O 3.3120033611050004 1.570291677315 2.6112757162099998
O 3.311995896105 4.7108764323150005 2.6112857462099996
O 15.544679436105 1.570296632315 2.59499230621
O 15.544671971105 4.710881387315 2.59500233621
O 7.346116088895001 1.5702927226849999 3.3600833437899995
O 7.3461086238950015 4.710877477685 3.3600933737899994
O 19.578792163895 1.570297677685 3.3437999337899993
O 19.578784698895 4.710882432685 3.3438099637899996
O 8.812935770225 -5.88475e-07 5.31539622425
O 8.812928305225 3.140584166525 5.31540625425
O 21.045611845225 4.366525e-06 5.29911281425
O 21.045604380225 3.140589121525 5.299122844249999
O 1.8451911447750002 2.33475e-07 0.6559528057499999
O 1.8451836797750003 3.140584988475 0.6559628357499999
O 14.077867219775001 5.188475e-06 0.6396693957499999
O 14.077859754775002 3.1405899434749998 0.6396794257499999
O 2.696594000225 1.5702893115249998 5.32354294425
O 2.696586535225 4.710874066525 5.32355297425
O 14.929270075224998 1.570294266525 5.30725953425
O 14.929262610224999 4.710879021525 5.307269564249999
O 7.961525449775001 1.570295088475 0.64781611575
O 7.961517984775002 4.710879843475 0.64782614575
O 20.194201524775 1.570300043475 0.63153270575
O 20.194194059775 4.710884798475 0.63154273575
O -1.12096305408 1.57028845199 4.44875078428
O -1.12097051908 4.710873206990001 4.44876081428
O 11.111713020920002 1.5702934069899999 4.43246737428
O 11.111705555920002 4.710878161990001 4.432477404279999
O 11.779082504080002 1.57029594801 1.52260827572
O 11.779075039080002 4.71088070301 1.52261830572
O 24.01175857908 1.5703009030100001 1.50632486572
O 24.01175111408 4.7108856580100005 1.50633489572
O 4.99537871592 -1.44801e-06 4.4406040642799995
O 4.99537125092 3.14058330699 4.44061409428
O 17.22805479092 3.50699e-06 4.42432065428
O 17.228047325920002 3.14058826199 4.42433068428
O 5.66274819908 1.09301e-06 1.5307449657199999
O 5.66274073408 3.1405858480099997 1.53075499572
O 17.89542427408 6.04801e-06 1.5144615557199999
O 17.89541680908 3.14059080301 1.51447158572
