60

Al -0.004232521 0.0052158356 2.0599790632
In 5.318286814 0.0601054006 2.0703788982
Al -0.018827421 0.0232014756 9.1633551432
In 5.303691914 0.0780910406 9.1737549782
Al -0.024957279 0.0307554444 12.1467730968
In 5.297562056 0.0856450094 12.1571729318
Al -0.010362379 0.0127698044 5.0433970168
In 5.312156956 0.0676593694 5.0537968518
In 2.63148926660891 1.58098633649459 6.79693073624359
Al 7.954008601608911 1.63587590149459 6.8073305712435905
In 2.6168943666089097 1.59897197649459 13.90030681624359
Al 7.939413701608911 1.65386154149459 13.91070665124359
In 2.63995430860891 1.5705546652945899 2.67697260984359
Al 7.962473643608911 1.62544423029459 2.6873724448435903
In 2.62535940860891 1.58854030529459 9.78034868984359
Al 7.947878743608911 1.64342987029459 9.79074852484359
In -0.0553003736089098 3.10187199970541 11.52349678515641
In 5.267218961391091 3.1567615647054104 11.53389662015641
In -0.0407054736089098 3.08388635970541 4.42012070515641
In 5.2818138613910905 3.1387759247054103 4.430520540156411
In -0.0468353316089098 3.09144032850541 7.4035386587564105
In 5.275684003391091 3.1463298935054103 7.41393849375641
In -0.0322404316089098 3.07345468850541 0.30016257875641
In 5.290278903391091 3.1283442535054102 0.31056241375641
O 1.605425908505 0.025624358195 3.554839190005
O 6.9279452435049995 0.080513923195 3.5652390250050003
O 1.8145516332949998 3.2406022233449994 3.5473089527950004
O 7.137070968295001 3.2954917883449997 3.557708787795
O 9.8170125132 1.5069863934599999 3.5674328822000003
O 4.4944931782 1.45209682846 3.5570330472
O 0.770102301705 1.431824441655 10.653160442205001
O 6.092621636705 1.486714006655 10.663560277205
O -1.9098392431999998 3.2203298365399995 10.6434363478
O 3.4126800918000004 3.2752194015399994 10.653836182800001
O 3.687903626495 0.065236486805 10.662312804995
O 9.010422961495001 0.120126051805 10.672712639995
O 4.24114769611391 1.60139485908959 8.29179086304859
O 9.56366703111391 1.65628442408959 8.302190698048591
O 1.83642968590391 0.17991733923959 8.29054339083859
O 7.1589490209039095 0.23480690423959 8.30094322583859
O 1.8076956308089103 2.97297776435459 8.28358488524359
O 7.13021496580891 3.02786732935459 8.293984720243591
O 3.4350138893139106 2.97162366254959 1.18335995524859
O 8.757533224313908 3.02651322754959 1.1937597902485901
O 3.4637479444089103 0.17856323743459 1.1903184608435902
O 8.786267279408909 0.23345280243459 1.20071829584359
O 1.0302958791039099 1.55014614269959 1.18211248303859
O 6.35281521410391 1.60503570769959 1.1925123180385901
O 1.5543580558960899 3.12228052230041 13.01835691196141
O 6.876877390896089 3.1771700873004103 13.028756746961411
O -0.8503599543139101 1.70080300245041 13.01710943975141
O 4.47215938068609 1.75569256745041 13.027509274751411
O -0.8790940094089098 4.493863427565409 13.01015093415641
O 4.44342532559109 4.548752992565409 13.020550769156412
O 0.7482242490960898 4.492509325760409 5.90992600416141
O 6.070743584096089 4.547398890760409 5.920325839161411
O 0.77695830419109 1.69944890064541 5.91688450975641
O 6.0994776391910905 1.75433846564541 5.92728434475641
O -1.65649376111391 3.07103180591041 5.90867853195141
O 3.666025573886091 3.1259213709104103 5.91907836695141
