80

Ga 7.432006215 2.473268895 7.429421442499999
Al 2.4762777000000002 7.424278769999999 7.436060992499999
Ga 7.427822880000001 7.431368099999999 2.4804950074999996
In 7.429760055000001 7.426678184999999 7.4339903325
Ga 2.474340525 7.428968684999999 2.4825656675
In 7.43006904 2.4779588099999996 2.4759261175
In 2.47852386 2.47086948 7.431492102499999
In 2.476586685 2.475559395 2.4779967774999996
In 7.430067286380001 4.61548666578 4.95464754048
In 2.47240159638 9.57118645578 0.00779176548
Al 7.42782463362 5.29384024422 0.00177358452
In 4.9519185621 7.42814234922 4.621440317899999
Al 0.0026195421 2.4676437292199997 9.5724374129
Al -0.0013003371 7.425105105779999 5.2971863421
In 4.617305157360001 4.948610672279999 7.432882022379999
In 9.57109649736 0.00229071228 2.47274714738
In 5.293224917640001 -0.00447229728 7.4280315226199995
In 2.47627945362 5.28675091422 4.957339569519999
In 7.430070793620001 0.34043095422 -0.00279530548
In 2.47464775638 4.61777716578 0.00322287548
Ga 4.9544281779 2.47409523078 5.2905467921
In -0.0032375121 7.429795020779999 0.3436910171
In 0.0006823671 2.47233364422 4.6189420879
In 5.28904158264 4.9536269077199995 2.47910508762
In 0.3397425626400001 -0.00687171228 7.43010218262
In 4.617614142360001 -0.00010870272 2.4748178073799996
Al 2.4785256136200005 0.33334162422 4.9527706795199995
In 4.9524910029 2.47878514578 0.3370514671
In 0.3355592276400001 4.951227492719999 2.4811757476199996
In 7.4278211263800005 9.56889595578 4.95921643048
Al 4.9538557371000005 7.42345243422 9.574935642899998
Ga 9.570787512359999 4.951010087279999 7.430811362379999
O 6.143103196680001 3.8703881708999996 6.49999111998
O 3.7639138840800004 8.82088233366 8.368068168979999
O 8.71599752052 6.036012232139999 1.5474110878199998
O 6.142852248720001 6.0283112132999985 8.36449739822
O 6.4976984822100015 6.14170803855 3.8765820618299998
O 8.363223179490001 3.76028384439 8.827105751469999
O 1.5438927323099998 8.713036651409999 6.04075250633
O 8.36105245599 6.140565415649999 6.03552745537
O 3.8730783366900003 6.4949338364099996 6.146709330559999
O 8.82478629153 8.362066303649998 3.7686788171999996
O 6.036050134470001 1.5401319355499998 8.7170552018
O 6.0319520873100005 8.358461874389999 6.147524425439999
O 3.76324354332 6.031849409099999 3.4119959900199994
O 6.142432855920001 1.0813552463399998 1.5439189410199998
O 1.1903492194800003 3.86622534786 8.36457602218
O 3.7634944912800004 3.8739263667 1.54748971178
O 3.4086482577899995 3.76052954145 6.0354050481699995
O 1.54312356051 6.14195373561 1.08488135853
O 8.362454007690001 1.1892009285899998 3.8712346036699996
O 1.54529428401 3.76167216435 3.8764596546299996
O 6.033268403310001 3.407303743589999 3.76527777944
O 1.0815604484699999 1.54017127635 6.1433082928
O 3.8702966055300005 8.362105644449999 1.1949319081999998
O 3.874394652690001 1.5437757056099999 3.7644626845599998
O 1.18543750668 8.826087960899999 1.5531353449799998
O 8.71770522408 3.87456237366 3.4079332939799993
O 3.76669850052 1.0755136121399997 6.4984081828199995
O 1.18967887872 1.0771924232999999 3.408503843219999
O 1.5483994622100001 1.1812094185499997 8.82757915683
O 3.4055574894899996 8.715983634389998 3.8802499764699996
O 6.49768407231 3.7667166914099997 1.08061763133
O 3.40787908599 1.1894466256499998 1.07953390037
O 8.82686967669 1.54861387641 1.1865744555599997
O 3.8754872715300004 3.4015676836499997 8.7196759122
O 1.07838444447 6.4958317255499995 3.7701994267999996
O 1.0787787173099999 3.4073430843899994 1.1915308704399998
O 8.72090923332 1.0761496191 8.358851765019999
O 1.1886415159200001 6.027675206339999 6.50405381602
O 6.1396482394800005 8.826723967860001 3.4135789271799992
O 8.716667861280001 8.825045156700002 6.50348326678
O 8.35794727779 8.721028161449999 1.08440795317
O 6.5007892505100004 1.1862539456099999 6.031737133529999
O 3.40866266769 6.1355208885899994 8.83136947867
O 6.498467654010001 8.71279095435 8.83245320963
O 1.0794770633100002 8.353623703589998 8.72541265444
O 6.03085946847 6.50066989635 1.1923111977999998
O 8.82796229553 3.406405854449999 6.1417876832
O 8.82756802269 6.49489449561 8.720456239559999
