60

In -0.00236648555 0.00291864265 1.9816801028499997
Al 5.06498318945 0.03347776765 1.9867807778499997
In -0.01052678055 0.01298292765 8.81505976785
Al 5.05682289445 0.04354205265 8.82016044285
In -0.01395410445 0.01720992735 11.68507922715
Al 5.05339557055 0.04776905235 11.69017990215
In -0.00579380945 0.00714564235 4.851699562149999
Al 5.06155586555 0.03770476735 4.85680023715
Al 2.5170538483604803 1.48761431461951 6.53778370340851
Al 7.584403523360479 1.51817343961951 6.54288437840851
Al 2.50889355336048 1.49767859961951 13.37116336840851
Al 7.57624322836048 1.52823772461951 13.37626404340851
Al 2.5217868194604804 1.48177702931951 2.57442349770851
Al 7.5891364944604796 1.51233615431951 2.57952417270851
Al 2.5136265244604803 1.4918413143195102 9.40780316270851
Al 7.580976199460479 1.52240043931951 9.412903837708509
In -0.03086793446048 2.9417553156804903 11.08880029729149
Al 5.036481740539521 2.97231444068049 11.09390097229149
In -0.02270763946048 2.9316910306804904 4.25542063229149
Al 5.04464203553952 2.9622501556804903 4.260521307291491
In -0.02613496336048 2.93591803038049 7.125440091591489
Al 5.04121471163952 2.96647715538049 7.13054076659149
In -0.01797466836048 2.9258537453804903 0.29206042659149
Al 5.04937500663952 2.95641287038049 0.29716110159149
O 1.5313268040249999 0.014291557375 3.418235337025
O 6.598676479024999 0.044850682375 3.423336012025
O 1.743465766575 3.0742045736750003 3.4142255646049997
O 6.810815441575001 3.1047636986750002 3.4193262396049997
O 9.3549058119 1.39112232145 3.42427441087
O 4.2875561369 1.3605631964499998 3.41917373587
O 0.747453118425 1.349327771325 10.248998230395
O 5.814802793425 1.379886896325 10.254098905394999
O -1.7966372518999998 3.06296914855 10.24405005913
O 3.2707124231000004 3.09352827355 10.24915073413
O 3.519702280975 0.036396137625 10.253624667975
O 8.587051955975001 0.066955262625 10.258725342975
O 4.05074713793548 1.4989872293445101 7.97433893758351
O 9.11809681293548 1.52954635434451 7.979439612583509
O 1.75564662548548 0.15549647064451 7.973864700163509
O 6.82299630048548 0.18605559564451 7.97896537516351
O 1.7396267958104799 2.81469974341951 7.97017666142851
O 6.806976470810478 2.8452588684195104 7.975277336428509
O 3.28319404233548 2.8138948732945104 1.13834250095351
O 8.35054371733548 2.8444539982945103 1.14344317595351
O 3.2992138720104798 0.15469160051951 1.14203053968851
O 8.366563547010479 0.18525072551951 1.14713121468851
O 0.9880935298854798 1.4704041145945101 1.13786826353351
O 6.0554432048854805 1.5009632395945103 1.14296893853351
O 1.5028253551145196 2.95312823040549 12.52535553146649
O 6.57017503011452 2.98368735540549 12.53045620646649
O -0.79227515733548 1.6096374717054902 12.524881294046489
O 4.275074517664521 1.6401965967054901 12.52998196904649
O -0.8082949870104799 4.26884074448049 12.52119325531149
O 4.25905468798952 4.29939986948049 12.526293930311489
O 0.7352722595145199 4.2680358743554905 5.68935909483649
O 5.802621934514519 4.29859499935549 5.69445976983649
O 0.75129208918952 1.6088326015804901 5.69304713357149
O 5.81864176418952 1.6393917265804903 5.69814780857149
O -1.5598282529354799 2.92454511565549 5.68888485741649
O 3.5075214220645208 2.95510424065549 5.69398553241649
