80

Al 10.765465274015 3.40526e-06 1.1946421621499999
Al 10.765456099015 3.0878336052599997 1.1946608721499998
Al 22.949694959014998 7.94526e-06 1.19071911215
Ga 22.949685784015 3.0878381452599997 1.19073782215
Al -0.093428319015 -2.38526e-06 4.64635290785
Ga -0.093437494015 3.08782781474 4.64637161785
Al 12.090801365985 2.15474e-06 4.64242985785
Ga 12.090792190984999 3.0878323547399997 4.64244856785
Al 4.6733458440149995 1.54391623526 1.1966130421499999
Al 4.673336669015 4.63174643526 1.1966317521499998
Al 16.857575529014998 1.54392077526 1.1926899921499998
Al 16.857566354015 4.63175097526 1.19270870215
Ga 5.998681935984999 1.54391498474 4.64440073785
Al 5.9986727609849995 4.631745184740001 4.64441944785
Al 18.182911620985 1.54391952474 4.64047768785
In 18.182902445985 4.631749724740001 4.64049639785
Ga 9.209568364805 1.54391650342 4.00632390027
Ga 9.209559189804999 4.63174670342 4.00634261027
In 21.393798049804996 1.5439210434200001 4.00240085027
Al 21.393788874804997 4.63175124342 4.00241956027
Ga 1.462459415195 1.54391471658 1.83468987973
Ga 1.462450240195 4.631744916580001 1.83470858973
Al 13.646689100195001 1.54391925658 1.83076682973
Al 13.646679925195 4.631749456580001 1.83078553973
In 3.1174581098050007 -8.6658e-07 4.00827607027
Ga 3.117448934805001 3.08782933342 4.00829478027
In 15.301687794805 3.67342e-06 4.00435302027
In 15.301678619805001 3.08783387342 4.00437173027
In 7.5545788451950004 1.88658e-06 1.83271899973
In 7.554569670195 3.08783208658 1.83273770973
Al 19.738808530195 6.42658e-06 1.82879594973
In 19.738799355195003 3.08783662658 1.82881465973
O 9.415529726485 2.21634e-06 2.55098485609
O 9.415520551484999 3.08783241634 2.55100356609
O 21.599759411485 6.75634e-06 2.54706180609
O 21.599750236485 3.0878369563400003 2.54708051609
O 1.2565072285149999 -1.19634e-06 3.2900102139099996
O 1.2564980535149997 3.08782900366 3.2900289239099996
O 13.440736913515 3.34366e-06 3.2860871639099996
O 13.440727738515 3.08783354366 3.2861058739099995
O 3.3234102964850005 1.54391504634 2.55295573609
O 3.3234011214850003 4.63174524634 2.55297444609
O 15.507639981485 1.54391958634 2.54903268609
O 15.507630806485 4.63174978634 2.54905139609
O 7.348617483515002 1.5439161736599998 3.2880580439099996
O 7.348608308515002 4.63174637366 3.2880767539099995
O 19.532847168515 1.54392071366 3.2841349939099995
O 19.532837993515002 4.63175091366 3.2841537039099995
O 8.827980257274998 6.581e-07 5.19870138005
O 8.827971082274997 3.0878308581000002 5.19872009005
O 21.012209942275 5.1981e-06 5.19477833005
O 21.012200767275 3.0878353981 5.19479704005
O 1.844056697725 3.619e-07 0.64229368995
O 1.8440475227249997 3.0878305618999997 0.64231239995
O 14.028286382725002 4.9019e-06 0.63837063995
O 14.028277207725 3.0878351019 0.63838934995
O 2.7358608272750002 1.5439134880999998 5.20067226005
O 2.7358516522750005 4.6317436881 5.20069097005
O 14.920090512274998 1.5439180281 5.19674921005
O 14.920081337274999 4.6317482281 5.19676792005
O 7.936166952725001 1.5439177319 0.64034151995
O 7.9361577777250005 4.631747931900001 0.64036022995
O 20.120396637725 1.5439222718999999 0.63641846995
O 20.120387462725002 4.6317524719000005 0.63643717995
O -1.07482686715 1.5439125028 4.34276782596
O -1.07483604215 4.6317427028 4.34278653596
O 11.10940281785 1.5439170428 4.33884477596
O 11.10939364285 4.6317472428 4.33886348596
O 11.746854647150002 1.5439187172 1.49824595404
O 11.746845472150001 4.6317489172 1.4982646640400001
O 23.931084332149997 1.5439232572 1.4943229040400001
O 23.931075157149998 4.6317534572 1.49434161404
O 5.017292562850001 -3.272e-07 4.34079694596
O 5.017283387850001 3.0878298728 4.34081565596
O 17.201522247849997 4.2128e-06 4.33687389596
O 17.20151307285 3.0878344128 4.33689260596
O 5.65474439215 1.3472e-06 1.50019812404
O 5.65473521715 3.0878315472 1.50021683404
O 17.83897407715 5.8872e-06 1.49627507404
O 17.83896490215 3.0878360872000004 1.4962937840400001
