40

In 3.268071179745246 1.892459664796123 0.6630842226003535
In -0.135895020360655 0.1045823796362352 14.877454354502332
In -1.657342907754754 4.741247084796123 2.538218853850353
Ga -0.0225402877547541 1.907193279796123 2.5737016238503534
In 1.6155431222452463 4.740154649796122 2.5681389838503534
In 3.232620304745246 1.919742024796123 4.544159285100354
In 4.838974060615409 0.9974286155676415 7.800189417897314
In 3.204171440615409 3.831482420567642 7.764706647897314
In 1.566088030615409 0.9985210505676415 7.770269287897314
In -0.047267832860655 0.0363764796362352 5.174766698252332
In -0.100444145360655 0.0773000196362352 10.996379292002333
In -0.0864400268845913 3.846216035567642 9.675324049147314
In 1.5199138271393449 2.923902569636235 12.931354183252331
In 3.154716447139345 0.0898487646362352 12.966836953252331
In -1.7529722028606551 2.924995004636235 12.901434053252332
In 3.179443992245246 1.960665564796123 10.365771878850353
O 1.560594231115409 2.8800393411676417 1.313130842147314
O -0.0088162840845908 5.600730993967641 1.279067382947314
O -1.5813763576845912 2.8810880787676414 1.284407517347314
O 3.144702134745246 1.987402277596123 14.169225440100353
O -0.012525975360655 0.0096397668362352 1.3713131370023326
O -1.6980234098845912 4.785110369967643 14.156442193647313
O -0.1286128946845911 2.0644187171676416 14.190505652847314
O 1.4439471789154092 4.784061632367642 14.185165518447315
O -1.7584660023606549 4.806513295236235 6.444295607502332
O -0.058271277560655 1.8590973380362352 6.481197688302332
O 1.6453354688393453 4.805377162836235 6.475412542702332
O -0.0325546968845913 3.8047468483676417 3.776089954147314
O 3.2141858497452462 1.933928851996123 6.5623183176003534
O 4.940097156639345 0.9321624040362352 3.894112509002332
O 3.2399024318393446 3.8795783612362356 3.857210428202332
O 1.536295685439345 0.9332985364362352 3.862995573802332
O 4.737851062745246 1.0626947703961231 11.706266328100353
O 3.1684405475452455 3.783386423196123 11.672202868900353
O 1.595880473945246 1.0637435079961233 11.677543003300354
O -0.082009690360655 0.0631131924362352 8.978220259502331
O -0.1048744818845913 3.8604028627676414 11.693483081647313
O 1.6210369217452456 2.8586363591961232 9.025277429600354
O 3.1904474369452456 0.1379447063961232 9.059340888800355
O 4.763007510545246 2.857587621596123 9.054000754400354
