40

Ga 12.294009279492037 2.038563469071487 3.199138124181791
In 9.048537660491858 2.0119413979820404 11.744844225882437
Ga 5.282805320216366 2.0371524898296847 1.9001688830423487
Ga 5.594961695216366 2.006052554829685 12.934397925542347
Ga 8.788407347991857 2.0378580104820405 2.5496533571324376
In 12.554139591992039 2.012646856571487 12.394328992931792
Al 9.731048336992037 0.5025407115714866 5.006005207931791
In 1.1491346829918565 0.48263543548204 9.818927192132437
In 7.113645431992037 2.0297302965714867 4.983468527931791
Ga 3.7641216879918566 2.01347487048204 9.851098282132437
Ga 8.944485539653943 2.0223080425673743 8.066768025505493
Ga 12.398061400329953 2.0281968244861526 6.877214324558737
In 5.4388835077163655 2.021602522329685 7.417283404292348
Ga 7.848182162716366 0.5151462273296845 0.0836673892923488
Ga 2.615792252716366 0.5114963773296846 0.0289596192923488
Ga 10.463169167716366 2.045985662329685 0.1158384792923488
O 7.987762321053943 0.5658954451673744 3.7868217024054913
O 2.8923240629299527 0.5416018626861526 11.038496074058736
O 12.239902170329954 2.043954124886153 1.2865382763587376
O 9.102644769653942 2.0065507421673745 13.657444073705491
O 2.755469047053942 0.4399244343673743 3.7317285560054914
O 8.124810608929952 0.4229305518861525 11.092818467658738
O 10.498149845853943 2.0355013027673743 3.8177059488054916
O 10.844397094129953 2.0150035642861526 11.126276401258737
O 5.3369124775161065 2.031761865046473 3.8127685843857706
O 5.5408546425161065 2.011443240846473 11.02179822548577
O 4.359078373253943 0.4481417049673743 1.2481431261054918
O 6.521201282729953 0.4147132812861525 13.576403897558736
O 9.591371647253942 0.5741127157673743 1.3032362725054918
O 11.753494556729953 0.5406842920861525 13.631497043958737
O 7.078664858453942 2.0402147173673746 1.2816010597054919
O 14.263882081529953 2.0102901496861527 13.662381290358736
O 4.638238528916106 0.5496399880464733 8.65445160308577
O 6.241847855116106 0.5578572586464733 6.17086617318577
O 8.890378430491857 2.02769869838204 6.154168177682438
O 12.452168509492038 2.0228061686714867 8.789814172381792
O 9.870725074916106 0.4309686772464732 8.70877399668577
O 1.0095545811161062 0.4318862478464732 6.11577302678577
O 7.1486260537161055 2.019245845646473 8.685335849485769
O 3.729141066316106 2.0239592602464733 6.14923096038577
