40

Al -0.0629672744599818 3.336498772031558 13.719295345146827
Al 1.451497484783308 2.5266675898547937 2.398735592683659
Al 2.9148319747833082 -0.006772740145206 2.3979229276836587
Al -1.4741690952166921 2.526180029854794 2.3849956476836587
Al 2.925332475926674 1.6896102831136481 0.0188617034195152
Al 2.900954614676674 1.673274608113648 5.383273307169516
Al -0.0189605589666921 -0.012705525145206 4.172320183933659
In -1.4961724090733264 4.200782153113648 7.158483228419516
Al -0.0328379190733261 1.667341823113648 7.157670563419516
In 1.4294941709266737 4.201269713113648 7.172223173419516
Al -0.0467153669599818 3.3473892220315578 10.143020942646826
In 2.884702707176674 1.662384158113648 8.959547709669515
Al 4.334159749290018 0.8089912270315578 11.944085423896826
Al 2.8708252592900183 3.3424315570315577 11.944898088896826
Al 1.4084931692900182 0.8085036670315577 11.930345478896827
Al -0.0433384202166921 -0.029041200145206 9.53673178768366
O 4.3242871697766745 0.8753626437136481 1.2389317298695153
O 2.9194860593766743 3.3074653605136484 1.2397118882695153
O 1.5156472529766742 0.8748945861136481 1.2257413826695154
O -0.0592652895666921 -0.039713841145206 13.04148070213366
O -0.0064106363599818 3.3743975380315576 1.2738604244468261
O 1.461370152076674 2.4602961225136477 13.103889286969517
O 2.866171262476674 0.0281934057136482 13.103109128569516
O 4.270010068876674 2.4607641801136477 13.117079634169516
O 1.3766171881400182 2.5494772576315574 5.998679365346827
O -0.0281839222599818 4.981579974431557 5.999459523746826
O -1.4320227286599818 2.5490092000315574 5.9854890181468265
O 2.9094056065766742 1.6789376421136482 3.5236106178695152
O -0.0274115508666921 -0.018368559145206 6.031982873233659
O -1.4212921995599817 4.177972536431558 3.5585393124468263
O -0.0164910891599815 1.7458698196315579 3.5577591540468263
O 1.3873477172400186 4.178440594031558 3.571729659646826
O -1.5710527063666924 4.223591820454794 10.758427144133659
O -0.0491848367666921 1.588813877254794 10.757581972533659
O 1.471640536833308 4.224098882854793 10.77271668693366
O -0.0382643750599818 3.3530522560315577 8.283358253346826
O 2.8762517152766742 1.6567211241136481 10.819210398969515
O 4.409040045933308 0.7861815592547939 8.34414165123366
O 2.887172176333308 3.420959502454794 8.34498682283366
O 1.3663468027333079 0.785674496854794 8.32985210843366
