80

In 7.024507255 2.3408297375 6.99931545
Al 2.339307765 7.005552012500001 7.01851208
Al 7.003260355 7.023652052500001 2.33207184
Al 7.014460875 7.015728772500001 7.00709973
Ga 2.328107245 7.013475292500001 2.34348419
Al 7.013306735 2.3487530175 2.32428756
Ga 2.349354145 2.3306529775000002 7.0107278
In 2.338153625 2.3385762575 2.3356999099999998
Al 7.014566958840001 4.364347760620001 4.66516431396
In 2.31816694884 9.03699331562 0.00933305396
Al 7.00200013116 5.008057309380001 -0.00880491396
In 4.670522424640001 7.015140815540001 4.3573900634800005
Al 0.01661621464 2.32214174054 9.036046023479999
Al -0.00310741464 7.003886489460001 5.00460620652
Al 4.36399709852 4.67249885532 7.0096898048
Al 9.03799606852 0.01569986032 2.3154652848
Al 5.00986430148 -0.00101614032 7.0003534452
Al 2.33804754116 4.9899572693800005 4.67763532604
In 7.01204651116 0.3331582743800001 -0.01658919396
Al 2.32821332884 4.362094280620001 0.00154877396
In 4.68209207536 2.33916421446 4.98540957652
Ga -0.01430793464 7.011809769460001 0.32957831652
Al 0.00541569464 2.33006502054 4.36101813348
Al 4.98861740148 4.68180617468 2.3331098352
Al 0.3347111914800001 -0.01119290032 7.0117657952
In 4.36284295852 0.00552310032 2.3268776347999998
Al 2.3480939211600003 0.3150582343800001 4.66985104604
In 4.67089155536 2.3470874944599998 0.31038168652
Al 0.31346429148 4.67162941468 2.3445221851999998
Al 7.00452057884 9.03924679562 4.67294859396
Al 4.681722944640001 7.007217535540001 9.03241795348
Al 9.03915020852 4.68267561532 6.9982774548
O 5.80402866948 3.6579948844100003 6.12557258464
O 3.5541201922 8.325029921330001 7.8966452792799995
O 8.219527545000002 5.70946605887 1.44800421872
O 5.80385984332 5.69327171039 7.88677701736
O 6.130102175760001 5.80403070756 3.6505513139800003
O 7.90398252752 3.55598235252 8.31755170598
O 1.45460837488 8.22134689568 5.70432364962
O 7.892843171839999 5.804402619239999 5.68457243042
O 3.6566775262600006 6.131600893040001 5.79832310126
O 8.322676947780002 7.9033428646 3.54582425334
O 5.710914932620001 1.4570188198 8.21657753946
O 5.69126684334 7.89379999756 5.79627420594
O 3.54858583052 5.69631014559 3.2172270553599995
O 5.7984943078 1.02927510867 1.44615436072
O 1.1330869550000002 3.6448389711300004 7.89479542128
O 3.5487546566800003 3.6610333196100004 1.45602262264
O 3.22251232424 3.5502743224400004 5.69224832602
O 1.44863197248 5.798322677479999 1.02524793402
O 7.89800612512 1.13295813432 3.63847599038
O 1.45977132816 3.54990241076 3.65822720958
O 5.69593697374 3.2227041369599996 3.54447653874
O 1.0299375522199998 1.4509621654 5.79697538666
O 3.6416995673800003 7.897286210200001 1.12622210054
O 3.6613476566600003 1.46050503244 3.54652543406
O 1.10762865948 8.330640439409999 1.46974132464
O 8.228119162200002 3.66823092633 3.20242075928
O 3.565621335 1.0164669838700002 6.12666017872
O 1.1275525933200001 1.01611919539 3.2153771973599996
O 1.4761959657600001 1.11103163256 8.32920727398
O 3.2075825175199997 8.22862790752 3.66172044598
O 6.128607344880001 3.56454790068 1.01009912962
O 3.21653592184 1.12725010424 1.01317261042
O 8.330676496260002 1.47480189804 1.10409858126
O 3.6687707377800005 3.2103437895999996 8.22448021334
O 1.0145149226199999 6.1296643748 3.56074627946
O 1.0149595933399997 3.2166474825599995 1.1248743859399999
O 8.24498584052 1.0236645905900001 7.87305831536
O 1.1244953378000002 5.68607410367 6.14037888072
O 5.786993165 8.33783804613 3.2161394612799996
O 8.22506190668 8.33818583461 6.12742244264
O 7.876418534239999 8.24327339744 1.01359236602
O 6.145031982480001 1.1256771224800002 5.68107919402
O 3.22400715512 5.78975712932 8.33270051038
O 6.136078578160001 8.227054925760001 8.32962702958
O 1.0219380037399999 7.87950313196 8.23870105874
O 5.6838437622199995 6.1439612404 1.11831942666
O 8.338099577380001 3.2246406552 5.78205336054
O 8.337654906660001 6.13765754744 8.21792525406
