80

Al 10.835064298835 3.987725e-06 1.225314997605
In 10.835058218835 3.184598517725 1.225316617605
Al 23.120312013835 9.912725e-06 1.197285692605
In 23.120305933835002 3.184604442725 1.197287312605
Ga -0.1704306038350001 -4.882725e-06 4.848088067395
Ga -0.170436683835 3.184589647275 4.848089687395
Al 12.114817111165 1.042275e-06 4.820058762395001
In 12.114811031164999 3.184595572275 4.820060382395001
Ga 4.692437401335 1.592298290225 1.239330460105
Ga 4.692431321335 4.776892820225 1.239332080105
In 16.977685116335 1.592304215225 1.211301155105
Ga 16.977679036334997 4.776898745225 1.211302775105
Al 5.972190213665 1.592295344775 4.834074224895001
Ga 5.972184133665 4.776889874775 4.8340758448950005
In 18.257437928665002 1.5923012697749999 4.806044919895
Ga 18.257431848665 4.776895799775 4.806046539895001
Ga 9.220149070595001 1.592297569405 4.162010770315001
In 9.220142990595 4.776892099405 4.162012390315001
Al 21.505396785595003 1.5923034944049999 4.133981465315
Ga 21.505390705595 4.776898024405 4.133983085315001
Al 1.4444785444050001 1.592296065595 1.911393914685
In 1.444472464405 4.776890595595 1.9113955346850002
In 13.729726259405 1.592301990595 1.883364609685
Al 13.729720179405 4.776896520595 1.8833662296850002
In 3.0775282530950006 -2.658095e-06 4.1760246128150005
In 3.077522173095 3.1845918719050004 4.176026232815
In 15.362775968094999 3.266905e-06 4.147995307815001
In 15.362769888095 3.1845977969050003 4.147996927815001
In 7.587105441905 1.763095e-06 1.8973784521850001
In 7.587099361905 3.1845962930950003 1.897380072185
Ga 19.872353156905003 7.688095e-06 1.8693491471850001
In 19.872347076905005 3.184602218095 1.869350767185
O 9.451691533565 1.919635e-06 2.6431457104550002
O 9.451685453565 3.184596449635 2.643147330455
O 21.736939248565 7.844635e-06 2.6151164054550002
O 21.736933168565002 3.184602374635 2.615118025455
O 1.2129421614349998 -2.814635e-06 3.4302573545449997
O 1.2129360814349999 3.184591715365 3.430258974545
O 13.498189876435001 3.110365e-06 3.4022280495449997
O 13.498183796435 3.184597640365 3.402229669545
O 3.3090646360650005 1.592296222135 2.657161172955
O 3.309058556065001 4.776890752135 2.6571627929550004
O 15.594312351065003 1.592302147135 2.629131867955
O 15.594306271065001 4.776896677135 2.6291334879550003
O 7.355562978935001 1.592297412865 3.416243512045
O 7.355556898935001 4.776891942865 3.416245132045
O 19.640810693935002 1.592303337865 3.388214207045
O 19.640804613935 4.776897867865 3.388215827045
O 8.815835364225 -1.122425e-06 5.406870339625001
O 8.815829284225 3.184593407575 5.406871959625001
O 21.101083079225 4.802575e-06 5.378841034625
O 21.101076999225 3.184599332575 5.378842654625
O 1.8487983307750002 2.27425e-07 0.6665327253750001
O 1.8487922507750003 3.184594757425 0.666534345375
O 14.134046045775001 6.152425e-06 0.6385034203750001
O 14.134039965775 3.184600682425 0.638505040375
O 2.673208466725 1.592293180075 5.420885802125
O 2.6732023867250003 4.776887710075 5.420887422125
O 14.958456181725003 1.5922991050750002 5.392856497125001
O 14.958450101725001 4.776893635075 5.392858117125001
O 7.991419148275002 1.5923004549250002 0.652518882875
O 7.991413068275001 4.776894984925 0.6525205028750001
O 20.276666863275 1.5923063799250001 0.624489577875
O 20.276660783275 4.776900909925 0.6244911978750001
O -1.154978266 1.59229222144 4.53325294369
O -1.154984346 4.77688675144 4.53325456369
O 11.130269449000002 1.59229814644 4.50522363869
O 11.130263369000001 4.77689267644 4.50522525869
O 11.819605881000001 1.59230141356 1.54015174131
O 11.819599801 4.77689594356 1.5401533613100002
O 24.104853596 1.59230733856 1.51212243631
O 24.104847516 4.7769018685599995 1.5121240563100002
O 4.9876486315 -2.08106e-06 4.51923748119
O 4.9876425515 3.18459244894 4.51923910119
O 17.2728963465 3.84394e-06 4.491208176190001
O 17.272890266500003 3.18459837394 4.491209796190001
O 5.6769850635 1.18606e-06 1.5541655838100001
O 5.6769789835 3.18459571606 1.55416720381
O 17.9622327785 7.11106e-06 1.5261362788100001
O 17.9622266985 3.1846016410600004 1.52613789881
