80

In 1.70764658428 7.647074293499999 6.65491870987
Ga 6.94646926428 7.621414908499999 6.62675883987
In 3.6209825694599997 1.3247376063399998 1.8664257139500002
In 8.85980524946 1.2990782213399998 1.8382658439500001
Ga 1.0103948419600002 3.15005152724 1.87527281875
Ga 6.24921752196 3.12439214224 1.8471129487500002
Ga 4.3182343117799995 5.8217603726 6.6460716050699995
Ga 9.557056991780001 5.7961009876 6.61791173507
Ga 0.96649152222 5.899439753685 -0.02208617253
Ga 6.20531420222 5.873780368685 -0.05024604253
In 4.341809512779999 3.061452491315 4.76411146753
Al 9.580632192780001 3.035793106315 4.73595159753
Ga 1.7143608227800002 1.423306451015 4.78295794093
Ga 6.95318350278 1.397647066015 4.75479807093
In 3.645534422220001 7.565300653984999 9.55124788407
Ga 8.88435710222 7.539641268984999 9.52308801407
Ga 0.93297526353 0.2925571944599999 9.577080338310001
Ga 6.17179794353 0.26689780946 9.54892046831
In 4.4268167930499995 8.69599448082 4.73794112563
Ga 9.66563947305 8.67033509582 4.70978125563
In 1.7881857030500001 4.76083872532 4.76341930463
Ga 7.027008383050001 4.73517934032 4.7352594346300005
In 3.57160635353 4.227712949959999 9.55160215931
Ga 8.81042903353 4.202053564959999 9.523442289310001
Al 3.6360561353200005 1.4129479054949998 7.52568946546
Ga 8.87487881532 1.3872885204949998 7.4975295954600005
Ga 1.70185997622 7.563852669144999 2.7222474537599997
Ga 6.940682656220001 7.538193284144999 2.69408758376
Ga 4.31314660372 5.882101855445001 2.71298586736
Al 9.55196928372 5.856442470445001 2.68482599736
Ga 1.0247695078199999 3.094698719195 7.53495105186
Ga 6.2635921878200005 3.069039334195 7.506791181860001
O 4.4182803875 6.006210159615001 8.52514216916
O 9.6571030675 5.980550774615001 8.49698229916
O 0.93057369656 2.9764659653449996 3.7563370224200003
O 6.169396376560001 2.9508065803449997 3.7281771524200003
O 3.54290867406 1.510059812445 3.7464537136200002
O 8.781731354060001 1.484400427445 3.71829384362
O 1.80594541 7.472616312514999 8.53502547796
O 7.04476809 7.446956927514999 8.50686560796
O 2.7832277963400003 0.084715717615 6.01846447572
O 8.02205047634 0.059056332615 5.9903046057200005
O 2.53838454484 8.883326961264999 1.19834339602
O 7.777207224840001 8.857667576265 1.17018352602
O 5.13674152234 4.545658664364999 1.19674971922
O 10.37556420234 4.519999279364999 1.16858984922
O 0.18487081884 4.422384014515 6.02005815252
O 5.42369349884 4.396724629515 5.99189828252
O 0.12094963336 7.423386710685 1.13880792838
O 5.35977231336 7.397727325685 1.11064805838
O 5.19983720046 1.5442125304349996 5.92452505488
O 10.438659880460001 1.5185531454349996 5.8963651848800005
O 2.58715277296 2.9388371297349996 5.93461560448
O 7.825975452960001 2.9131777447349996 5.90645573448
O 2.7336340608600005 6.028762111384999 1.12871737878
O 7.97245674086 6.003102726384999 1.10055750878
O 5.16152659469 7.48494081546 6.070809026
O 10.40034927469 7.45928143046 6.042649156
O 0.16101444227 1.4836007308999999 1.3186580952800002
O 5.39983712227 1.4579413459 1.2904982252800001
O 2.78785159477 2.9961290523999997 1.3001742932800002
O 8.02667427477 2.9704696673999997 1.2720144232800001
O 2.53468944219 5.972412493959999 6.0892928280000005
O 7.7735121221900005 5.946753108959999 6.061132958
O 1.9433213858399998 1.540096044775 8.29225875891
O 7.18214406584 1.514436659775 8.26409888891
O 3.40274661088 7.441083477744999 3.47124268405
O 8.64156929088 7.415424092744999 3.44308281405
O 0.7763462708800001 6.018282098245 3.48946743505
O 6.01516895088 5.992622713245 3.46130756505
O 4.56972172584 2.9628974242750004 8.27403400791
O 9.808544405840001 2.9372380392750004 8.24587413791
O 4.426134230730001 0.01246482234 8.60939492058
O 9.66495691073 -0.01319456266 8.58123505058
O 0.92344217227 8.970599310659999 3.8063747984200003
O 6.162264852270001 8.944939925659998 3.77821492842
O 3.5211002497700004 4.48936790656 3.8051956032200005
O 8.75992292977 4.46370852156 3.7770357332200004
O 1.8284761532300002 4.49369622644 8.61057411578
O 7.067298833230001 4.46803684144 8.58241424578
