40

Ga 12.121932645352551 2.053032938968149 2.978722440731266
Ga 8.560839857914287 1.9774289113782637 11.698689162753329
Ga 5.185992800970237 2.038615032707441 1.8167226456244807
In 5.074245298470237 1.956540905207441 12.97788276812448
In 8.653962776664287 2.045824017628264 2.397722394003329
Al 12.028809726602551 1.9846378327181489 12.279689209481266
Ga 9.50266177160255 0.5045465627181486 4.856869599481266
Ga 0.7675510016642862 0.4386476826282635 9.915046519003328
Ga 6.89204091160255 2.021701022718149 4.897512699481266
Ga 3.3681972916642864 1.9734550376282638 9.897092714003328
Ga 8.59808902392432 2.0047869527839417 7.978302604068797
Al 12.084683479342518 2.0256748975624705 6.699108999415797
Ga 5.130119049720237 1.997577968957441 7.3973027068744805
In 7.815238244720239 0.5351395939574409 -0.0841138081255192
In 2.603971094720238 0.5174866989574409 -0.0255169031255192
In 10.415884534720238 2.069946948957441 -0.1020676131255192
O 7.812283107824321 0.5687561476839419 3.661138666568797
O 2.4575306826425165 0.4965165702624704 11.111685023715799
O 12.141302213942517 2.0672591221624708 1.0441212040157979
O 8.54147028932432 1.963202728183942 13.633290399468798
O 2.60141494062432 0.4290247800839418 3.718827999768797
O 7.669196815442516 0.3920909926624703 11.052180546915798
O 10.30890354622432 2.042171208483942 3.643903013768797
O 10.373868957042516 1.9882906418624704 11.033508589715797
O 5.166623285883163 2.024388881303588 3.7513237331654046
O 5.093614917583163 1.970767118003588 11.043281679865403
O 4.29434986252432 0.4532771753839419 1.1702140290687972
O 5.976261893542517 0.3678385973624704 13.600794517615796
O 9.50521802972432 0.5930085429839418 1.1125246958687973
O 11.187130060742517 0.5075699649624703 13.543105184415797
O 6.99902200412432 2.0494768245839423 1.1515420718687972
O 13.683750499142517 1.9809850257624708 13.525869531615797
O 4.2884394343831636 0.520510130803588 8.660718830265404
O 5.9813743562831645 0.544762526103588 6.112104859565404
O 8.617458592514286 2.0190131359782635 6.0437013673533295
O 12.06531391075255 2.0114487143681488 8.633710236131266
O 9.500105567183162 0.4160845532035879 8.601214353465403
O 0.7705061890831638 0.405031158503588 6.169794192765404
O 6.7850598727831635 1.9939251916035876 8.643483177465404
O 3.475178330683163 2.0012308077035876 6.1511222355654045
