80

Ga 10.815243540680001 1.17671e-06 1.26116995745
In 10.815239960680001 3.2546968767099997 1.26116586245
In 23.104088210679997 4.51671e-06 1.22388815745
In 23.104084630679996 3.25470021671 1.22388406245
In -0.2596489406800002 -6.90671e-06 5.018909772550001
In -0.2596525206800002 3.2546887932899997 5.01890567755
In 12.029195729319998 -3.56671e-06 4.98162797255
Al 12.029192149319998 3.25469213329 4.981623877550001
In 4.67081941568 1.62734735671 1.27980880995
In 4.670815835679999 4.882043056710001 1.27980471495
Ga 16.95966408568 1.62735069671 1.24252700995
In 16.95966050568 4.882046396710001 1.24252291495
In 5.88477160432 1.62734261329 5.000266825050001
In 5.88476802432 4.882038313290001 5.00026273005
In 18.17361627432 1.62734595329 4.962985025050001
In 18.17361269432 4.882041653290001 4.9629809300500005
Ga 9.14590702945 1.62734443692 4.30235396828
In 9.14590344945 4.882040136920001 4.302349873280001
In 21.43475169945 1.6273477769200002 4.265072168280001
Al 21.43474811945 4.882043476920001 4.26506807328
Ga 1.40968399055 1.62734553308 1.9777216667200002
In 1.40968041055 4.882041233080001 1.9777175717200002
In 13.698528660549998 1.62734887308 1.94043986672
In 13.698525080549999 4.88204457308 1.94043577172
Al 3.0014864844500004 -5.08308e-06 4.32099691578
Ga 3.001482904450001 3.25469061692 4.320992820780001
In 15.290331154449998 -1.74308e-06 4.283715115780001
Al 15.290327574449996 3.25469395692 4.28371102078
In 7.55410811555 -6.4692e-07 1.95908281422
In 7.5541045355500005 3.2546950530800003 1.95907871922
Al 19.84295278555 2.69308e-06 1.9218010142200002
In 19.84294920555 3.2546983930800004 1.9217969192200002
O 9.4054442615 -1.20141e-06 2.72985494001
O 9.4054406815 3.2546944985899997 2.72985084501
O 21.694288931499997 2.13859e-06 2.6925731400100004
O 21.694285351499996 3.25469783859 2.69256904501
O 1.1501503384999998 -4.52859e-06 3.5502247899899997
O 1.1501467584999998 3.2546911714099998 3.5502206949899997
O 13.4389950085 -1.18859e-06 3.51294298999
O 13.4389914285 3.25469451141 3.51293889499
O 3.2610201365000004 1.62734497859 2.74849379251
O 3.2610165565 4.88204067859 2.74848969751
O 15.5498648065 1.62734831859 2.71121199251
O 15.5498612265 4.88204401859 2.71120789751
O 7.294570883499999 1.62734499141 3.5315818424899996
O 7.294567303499999 4.882040691410001 3.5315777474899996
O 19.5834155535 1.6273483314100001 3.49430004249
O 19.5834119735 4.88204403141 3.49429594749
O 8.718592737149999 -5.2834e-06 5.5913214587
O 8.71858915715 3.2546904166 5.5913173637
O 21.007437407149997 -1.9434e-06 5.554039658700001
O 21.007433827149995 3.2546937566 5.5540355637
O 1.83700186285 -4.466e-07 0.6887582713
O 1.83699828285 3.2546952534 0.6887541763
O 14.125846532850002 2.8934e-06 0.6514764713000001
O 14.125842952850002 3.2546985934 0.6514723763
O 2.5741686121500007 1.6273408966 5.6099603112
O 2.5741650321500003 4.882036596600001 5.6099562162000005
O 14.863013282150002 1.6273442366 5.5726785112
O 14.86300970215 4.882039936600001 5.572674416200001
O 7.98142240785 1.6273490734 0.6701153238
O 7.981418827850001 4.8820447734000005 0.6701112288000001
O 20.27026707785 1.6273524134000001 0.6328335238
O 20.27026349785 4.882048113400001 0.6328294288
O -1.23865121333 1.62734112435 4.693648442090001
O -1.23865479333 4.882036824350001 4.69364434709
O 11.05019345667 1.62734446435 4.65636664209
O 11.05018987667 4.882040164350001 4.6563625470900005
O 11.79424223333 1.62734884565 1.5864271929100002
O 11.79423865333 4.88204454565 1.58642309791
O 24.083086903330003 1.6273521856500002 1.54914539291
O 24.08308332333 4.8820478856500005 1.54914129791
O 4.90577291167 -5.05565e-06 4.67500958959
O 4.90576933167 3.25469064435 4.675005494590001
O 17.19461758167 -1.71565e-06 4.63772778959
O 17.194614001669997 3.2546939843500002 4.63772369459
O 5.649821688329999 -6.7435e-07 1.60507014041
O 5.64981810833 3.25469502565 1.60506604541
O 17.93866635833 2.66565e-06 1.5677883404100001
O 17.93866277833 3.25469836565 1.5677842454100002
