40

Ga 0.9722986968399999 5.979802478890001 -0.02516309324
Ga 4.404503178159999 3.1113577861100006 4.82421240324
Ga 1.7384899092000001 1.44719729335 4.84387996244
In 3.6383119658000003 7.64396297165 -0.04483065244
Al 3.69003118565 1.4409650039100002 7.62202738673
Ga 1.7162815848900002 7.66886489235 2.7536923126299997
Ga 4.37113105105 5.96873216081 2.74534862193
Ga 1.0351817194900002 3.1410977354500007 7.63037107743
Al 1.72163940627 7.75499517898 6.73686768201
In 3.67541907647 1.3489801290799999 1.8900703621500001
In 1.02105236935 3.19459581086 1.89792437205
In 4.37600611339 5.9093794972 6.72901367211
In 0.9461815479300002 0.30228530205 9.70010386158
In 4.48193021165 8.82133540197 4.79496818114
In 1.80819279805 4.829447705370001 4.82247063314
Al 3.6199189615300007 4.29417299865 9.67260140958
O 4.477142145709999 6.097305804250001 8.63215325273
O 0.94007011935 3.0194194958900002 3.80324261831
O 3.5956437240700003 1.5375111897100002 3.79416440641
O 1.8215685409900002 7.579214110430001 8.64123146463
O 2.8260947635500004 0.09295458597 6.0960068526099995
O 2.5639715906299996 9.00659725545 1.20962949651
O 5.20989001455 4.615029944470001 1.21034490061
O 0.18017633963 4.48452189695 6.09529144851
O 5.229932530139999 7.595853890630001 6.14561777445
O 0.16105925282 1.5042834096100002 1.33489674019
O 2.82665010762 3.0411463209100003 1.31565765169
O 2.5643416753399997 6.058990979330001 6.16485686295
O 0.11098739199 7.52331877177 1.14983842719
O 5.278256358829999 1.5757126618100001 6.00035066369
O 2.6224413745899997 2.98487949287 6.00967371599
O 2.76680237623 6.114151940710001 1.1405153748899999
O 1.97050595354 1.56750236057 8.39824583568
O 3.4439300251800002 7.54746656311 3.5125155388
O 0.7786408947800002 6.1015304957100005 3.5314485768
O 4.63579508394 3.01343842797 8.379312797679999
O 4.49459330632 0.02349580207 8.72040909439
O 0.9233387366800001 9.09368485493 3.8510031276100003
O 3.56877440156 4.556634593709999 3.8522082125100003
O 1.8491576414400002 4.560546063290001 8.71920400949
