40

In 12.050866879172288 2.354903145160093 2.834260034462017
Al 7.750028340367494 2.3779267752974023 11.550090815238226
Ga 5.091437495633708 2.184430120185977 1.727230782966018
In 4.106088800633708 2.314342255185977 12.850445450466019
In 8.571152252867494 2.2696666627974023 2.280745258988227
In 11.229742966672287 2.463163257660093 12.103605590712018
In 9.270316451672286 0.7837287326600927 4.758942220712017
Al -0.0037569321325073 0.6464196077974017 9.863697468988226
In 6.584957686672286 2.259526457660093 4.784791835712016
In 2.612568712867493 2.239246042797402 9.792884393988228
Al 8.078477892229511 2.334622732029564 7.8423527410477565
In 11.72241732731027 2.3982071884279312 6.541998108652488
In 4.598763148133708 2.249386187685977 7.288838116716018
Al 7.941021043133708 0.6869803726859769 -0.1524879432839821
Al 2.639336633133708 0.569951662685977 -0.0558252532839821
Al 10.557346688133709 2.279806807685977 -0.2233010182839821
O 7.644345779629511 0.7927258494295636 3.578424894147756
O 1.6194524151102687 0.760167457427931 11.042416257152489
O 12.221660666110271 2.332385040027931 0.906236010452488
O 7.579234553429511 2.4004448804295637 13.478114839247757
O 2.34542269442951 0.5529521730295635 3.6768861225477556
O 6.9238981499102685 0.754451201027931 10.94755210555249
O 10.15601839882951 2.321839227029564 3.5104443421477556
O 9.644876820710268 2.410990693427931 10.873906507552489
O 4.9206437741602205 2.2069482554425055 3.6552546572497566
O 4.27688262676022 2.2918241836425053 10.922421573349757
O 4.265307409829511 0.5609546096295634 1.1246920704477559
O 5.00401343451027 0.7464487644279308 13.499746157652488
O 9.56423049502951 0.8007282860295635 1.0262308420477557
O 10.30293651971027 0.9862224408279309 13.401284929252487
O 6.986286080629511 2.2174941020295638 1.0510464724477557
O 12.814609138910269 2.515335818427931 13.333304377252487
O 3.67195674036022 0.7724454044425058 8.586517602149756
O 5.59184145576022 0.7804478410425058 6.0343235500497565
O 8.249271679167494 2.312104626897402 5.914328717038227
O 11.551623540372287 2.4207252935600927 8.470022132662018
O 8.97640247516022 0.7667291480425057 8.491653450549757
O 0.2929183705602209 0.5406741646425056 6.132784778449756
O 6.1836293595602205 2.3015587820425054 8.518537050149757
O 3.0138970413602206 2.197213657042506 6.0591391804497565
