30

O 1.64503132794 0.02797966398 3.5728363301
O 1.8136507644599997 3.2431758600999996 3.56432743266
O -0.8477791398999999 1.4308128434199998 3.56448223974
O 0.7908340455400001 1.4686310298999998 10.70721782734
O -1.9095849800999998 3.2220942365799994 10.69752707026
O 3.6911450320599997 0.07027423602 10.7162966499
O 4.300475935004044 1.618215215333309 8.333196685925088
O 1.8389379915240438 0.1609586114533091 8.332739558485088
O 1.8076654671640437 3.021048394773309 8.324842595565089
O 3.471951222604043 3.0195124912533093 1.1879811531650888
O 3.5032237469640437 0.1594227079333091 1.1958781160850886
O 1.0104132791240439 1.5622558873733088 1.1875240257250887
O 1.5940715308759565 3.1495510026266906 13.08402123427491
O -0.8674664126040436 1.692294398746691 13.083564106834912
O -0.8987389369640433 4.55238418206669 13.075667143914911
O 0.7655468184759567 4.55084827854669 5.938805701514911
O 0.7968193428359563 1.6907584952266907 5.946702664434912
O -1.6959911250040434 3.093591674666691 5.938348574074912
In -0.00382521293 0.00586375941 2.1276599574699997
Ga -0.01666149793 0.02554080441 9.26745847247
In -0.02184735707 0.03349033059 12.15193707253
In -0.00901107207 0.01381328559 5.012138557529999
Ga 2.651619394134044 1.596099310763309 6.888020313295089
In 2.6387831091340437 1.615776355763309 14.02781882829509
Ga 2.659269819994044 1.584371791943309 2.6327003983550887
In 2.6464335349940438 1.604048836943309 9.772498913355088
In -0.0547850099940435 3.1274350980566905 11.63884486164491
In -0.0419487249940435 3.1077580530566906 4.499046346644911
Ga -0.0471345841340435 3.1157075792366906 7.383524946704911
Ga -0.0342982991340435 3.0960305342366903 0.2437264317049112
