40

Al -0.0612371562753611 3.5284662215408535 13.6772507816893
Al 1.4828910964451238 2.597650476955153 2.373551795979944
In 2.973174741445124 0.0125869469551527 2.3964977309799442
Al -1.5013607785548762 2.599487831955153 2.359384660979944
Al 2.985480099830237 1.7209258627539943 0.0035922235807538
Al -0.019384983554876 0.0252425282051527 4.169078507229944
In -1.5222868201697635 4.3510996527539945 7.113470798580754
Al -0.0320031751697633 1.7660361227539942 7.136416733580754
In 1.461965054830237 4.349262297753994 7.127637933580754
Al -0.0196979062753611 3.4743750902908537 4.743511225439302
In -0.0446214562753611 3.5068297690408534 10.1037549591893
In 2.943940849830237 1.7750169940039944 8.937331779830753
Al 4.421606213724639 0.9307471102908532 11.927615940439301
Al 2.9313225687246387 3.5158106402908533 11.904670005439302
Al 1.4373543387246392 0.9325844652908533 11.913448805439302
Al -0.044308533554876 0.0576972069551527 9.529322240979944
O 4.411682128230237 0.9004739734039943 1.230456985630754
O 2.9810098290302363 3.3821349622039945 1.2084288880307539
O 1.5468003282302367 0.9022378342039943 1.216856536030754
O -0.060591919554876 0.0789009304051527 13.031348147029945
O -0.0034145202753611 3.4531713668408535 1.2414853193893018
O 1.4928152714302367 2.6279235621039945 13.070710751530754
O 2.923487570630237 0.1462625733039941 13.092738849130754
O 4.357697071430237 2.626159701303995 13.084311201130754
O 1.406504122124639 2.653923200940853 5.970375987489302
O -0.0241681770753608 5.135584189740853 5.948347889889302
O -1.4583776778753608 2.6556870617408532 5.9567755378893015
O 2.969196713830237 1.7421295862039943 3.505618129630754
O -0.028025147554876 0.0364934835051527 6.027296334929945
O -1.4458999346753612 4.294826979640854 3.5166464633893018
O -0.0152276354753609 1.8131659908408535 3.5386745609893016
O 1.4189818653246389 4.293063118840854 3.530246912989302
O -1.5986737951548762 4.407372377605153 10.710295133029945
O -0.0487788043548761 1.718906306405153 10.734158905429943
O 1.5049481548451242 4.405461528405153 10.725028953429945
O -0.0359812922753611 3.4955788137408534 8.245537131489302
O 2.935300685830237 1.7862679493039944 10.795549607530754
O 4.497993188045123 0.8744743863051528 8.330791748929945
O 2.9480981972451232 3.562940457505153 8.306927976529945
O 1.3943712380451239 0.8763852355051528 8.316057928529945
