20

In 10.929401536520002 9.63123e-06 1.18514160619
Ga -0.07103221652 -3.24123e-06 4.70302758381
Ga 4.74798000152 1.5683600462300002 1.2007180061899998
In 6.11038122848 1.5683589937700002 4.68744904381
Al 9.365076730419998 1.5683625406400001 4.03445397864
Ga 1.49328449958 1.56835649936 1.8537130713599999
Ga 3.1836632854200007 3.0564e-07 4.05003251864
Ga 7.674706034580001 6.08436e-06 1.8381366713599998
O 8.9839927709 5.037e-06 5.242184100799999
O 1.8743765491 1.353e-06 0.6459850892
O 2.8025712359000003 1.568355452 5.2577605008
O 8.0557899941 1.5683635880000002 0.6304065491999999
O 9.56661303504 7.40223e-06 2.56097950943
O 1.2917562849600002 -1.01223e-06 3.3271896805699996
O 3.3851915000400004 1.5683578172300001 2.5765559094299997
O 7.4731697299599995 1.5683612227700001 3.3116111405699993
O -1.0683706904599999 1.56835233779 4.39793213883
O 11.92673192046 1.56836670221 1.49023491117
O 5.11305084454 1.92279e-06 4.382355738829999
O 5.74531847546 4.46721e-06 1.5058134511699999
