80

Ga 7.310390419999999 2.43242037 7.293805020000001
In 2.436429455 7.294172715 7.308661805
Ga 7.296997089999999 7.3079045 2.432956335
Ga 7.304492984999999 7.300498965 7.30089564
Ga 2.42893356 7.30157825 2.4407225
Ga 7.302894524999999 2.4398259049999997 2.425865715
Ga 2.44232689 2.42609412 7.301571185
Ga 2.434830995 2.433499655 2.43363188
Ga 7.304094780579999 4.53913309054 4.86289851534
In 2.4226379205799997 9.40829097054 0.00981599534
In 7.295796834419999 5.20859731446 -0.00407646534
In 4.866203551639999 7.30154218388 4.53978919726
Ga 0.01153335164 2.41973180388 9.40840404726
Ga -0.00084053664 7.29420878112 5.20959510774
Ga 4.54238161746 4.8628663575 7.3017615117200005
In 9.40884668746 0.0085195475 2.4189654217200003
In 5.21033569254 -0.0043518675 7.29361469328
In 2.4352291994199997 5.19486552946 4.87162900466
In 7.301694269419999 0.3405187194600001 -0.01116708534
Ga 2.4285353555799998 4.54021237554 0.00272537534
Ga 4.87312042836 2.43245643612 5.19473832274
Ga -0.00833643164 7.30161431612 0.34165580274
Ga 0.00403745664 2.42713733888 4.54046474226
In 5.196942362540001 4.8711322625 2.4327660082800002
Ga 0.34227216254 -0.0106781175 7.30138085828
In 4.54078315746 0.0021932975 2.42673158672
In 2.4411266344199998 0.32678693446 4.86453838466
Ga 4.86562453336 2.43986197112 0.32679901774
Ga 0.32887883254 4.8648060125 2.4405321732800003
Ga 7.298197345579999 9.407211685539998 4.86998913534
In 4.873699446639999 7.29413664888 9.40772850226
Ga 9.41044514746 4.8691926075 7.29399534672
O 6.04162159727 3.8049659493700005 6.382651188400001
O 3.7018721243899995 8.66722346321 8.22381474628
O 8.56294745621 5.9381434017900006 1.5137649879200001
O 6.041868772129999 5.92466373563 8.2160878774
O 6.38544832185 6.0389263694299995 3.80533169683
O 8.22616687293 3.6972217788300004 8.666947426190001
O 1.5175863358700001 8.56077217557 5.93920652121
O 8.21910841935 6.038076226169999 5.92483315577
O 3.8083831555399996 6.3826833807400005 6.03947449061
O 8.67063122038 8.22296183926 3.69776353233
O 5.94065415502 1.5135121525400002 8.560326261270001
O 5.92864141906 8.215839177460001 6.03875451579
O 3.6977023827299997 5.929032670630001 3.3518763315999998
O 6.03745185561 1.06677515679 1.5107127737200001
O 1.1763765237900001 3.7958552182100003 8.22076253208
O 3.6974552078699996 3.80933488437 1.5184396426
O 3.3538756581499993 3.69507225057 5.92919582317
O 1.5131571070699998 6.03677684117 1.06758009381
O 8.22173764413 1.17322644443 3.7953209987900003
O 1.5202155606499999 3.6959223938300005 3.8096943642300003
O 5.9309408244599995 3.3513152392599994 3.6950530293900004
O 1.0686927596199998 1.51103678074 6.0367639876700006
O 3.7986698249799997 8.22048646746 1.17420125873
O 3.8106825609399997 1.51815944254 3.6957730042100003
O 1.16016473727 8.67412382937 1.5295686684
O 8.56833719439 3.81287665321 3.3410186562799997
O 3.7082772562099997 1.05633302179 6.38237983792
O 1.17220678213 1.05766442563 3.3488241174
O 1.53077812185 1.15711598943 8.67394654683
O 3.3447100129299994 8.56637965883 3.81386490619
O 6.38405140587 3.7064253655700004 1.05641043121
O 3.3494464293499995 1.17107691617 1.05756939577
O 8.67484822554 1.52833657074 1.15667840061
O 3.8159610203799996 3.3411514592599993 8.56637838233
O 1.0591972950199997 6.382670032540001 3.70724374127
O 1.0589794290599999 3.3488398674599993 1.17149075579
O 8.57915924273 1.0598747906300001 8.2049588516
O 1.17098678561 5.92112196679 6.39350886372
O 6.031046723789999 8.67766559821 3.35214768208
O 8.567117197870001 8.67633419437 6.385703402600001
O 8.20854585815 8.57688263057 1.06058097317
O 6.39461396707 1.1676189611699999 5.92066261381
O 3.3552725741299994 6.02757325443 8.67811708879
O 6.3898775506500005 8.56292170383 8.67695812423
O 1.0644757544599999 8.20566204926 8.57784911939
O 5.9233629596199995 6.392847160740001 1.16814913767
O 8.68012668498 3.3513285874599994 6.02728377873
O 8.680344550940001 6.385158752540001 8.56303676421
