80

Ga 1.6622889693699998 7.427591918849999 6.491487333189999
Ga 6.74054057937 7.395613158849999 6.466860068189999
Ga 3.5108531790699997 1.28153477251 1.82147055907
Ga 8.58910478907 1.2495560125099998 1.79684329407
Ga 0.9827499747299999 3.06008117009 1.83049759905
Ga 6.061001584729999 3.02810241009 1.80587033405
Ga 4.190392173709999 5.649045521270001 6.482460293209999
Ga 9.26864378371 5.61706676127 6.45783302821
Ga 0.9449123413299999 5.73567440378 -0.015114111515
Ga 6.02316395133 5.703695643780001 -0.039741376515
Ga 4.21045872867 2.96658784622 4.646395231515
Ga 9.288710338669999 2.93460908622 4.621767966515
Ga 1.6612925349499998 1.3770797448599998 4.661702591855
Ga 6.73954414495 1.3451009848599997 4.637075326855
Ga 3.5391827950500003 7.342604945139999 9.313935818145
Ga 8.61743440505 7.3106261851399985 9.289308553145
Ga 0.89984244612 0.27379847958 9.33038744439
Ga 5.97809405612 0.24181971958 9.305760179389999
Ga 4.30054267536 8.44585136554 4.62656225103
Ga 9.37879428536 8.41387260554 4.60193498603
Ga 1.73740724516 4.62260763794 4.64603479793
Ga 6.815658855160001 4.5906288779399995 4.62140753293
Ga 3.4629778763200005 4.0970422071799995 9.31091489749
Ga 8.54122948632 4.06506344718 9.28628763249
Al 3.5226664762799995 1.3617141867099998 7.334585079885
Al 8.60091808628 1.32973542671 7.309957814885
Al 1.6585944389599998 7.35054854385 2.6603571245749995
Al 6.7368460489599995 7.318569783849999 2.6357298595749996
Al 4.18757072058 5.71161062291 2.6510697604349995
Ga 9.265822330579997 5.67963186291 2.6264424954349996
Ga 0.99369019466 3.00065210765 7.343872444025
Al 6.07194180466 2.9686733476500002 7.319245179025
O 4.28665423264 5.8264272763900005 8.313210253345
O 9.364905842639999 5.79444851639 8.288582988345
O 0.90416878572 2.88952901145 3.662735696595
O 5.982420395719999 2.8575502514499997 3.638108431595
O 3.4344546832600003 1.46000380547 3.653057846215
O 8.512706293259997 1.4280250454699999 3.628430581215
O 1.7563683351 7.255952482369999 8.322888103724999
O 6.8346199451 7.2239737223699985 8.298260838725
O 2.6949437807600005 0.07269963387 5.864524988945
O 7.773195390759999 0.04072087387 5.839897723945
O 2.4720641883199996 8.63405760565 1.177600311875
O 7.550315798320001 8.60207884565 1.152973046875
O 4.98488854026 4.41236286687 1.173128944695
O 10.063140150259999 4.380384106869999 1.148501679695
O 0.18211942882 4.294394372649999 5.868996356125
O 5.26037103882 4.26241561265 5.8443690911249995
O 0.12675857152 7.21764157017 1.116842318095
O 5.20501018152 7.185662810169999 1.0922150530949999
O 5.0395277294000005 1.4888369103099997 5.775773266084999
O 10.1177793394 1.4568581503099995 5.751146001085
O 2.50880529322 2.84855787797 5.785581278545
O 7.587056903220001 2.8165791179699995 5.760954013545
O 2.6574810077 5.857920602510001 1.1070343056349998
O 7.735732617699999 5.825941842510001 1.082407040635
O 5.01040080335 7.26584953665 5.924176582339999
O 10.08865241335 7.23387077665 5.89954931734
O 0.15741904241 1.44122130679 1.2861471497
O 5.235670652409999 1.40924254679 1.2615198847
O 2.70582129351 2.90857199109 1.271067573
O 7.784072903509999 2.8765932310899998 1.2464403080000002
O 2.4619985522499994 5.79849885235 5.93925615904
O 7.5402501622499996 5.7665200923499995 5.91462889404
O 1.8815855664699999 1.48688356498 8.080557026274999
O 6.95983717647 1.45490480498 8.055929761275
O 3.3068018218499997 7.228131911099999 3.3907936300049997
O 8.38505343185 7.196153151099999 3.3661663650049998
O 0.7589452440500001 5.8480365246999995 3.405710504105
O 5.837196854049999 5.816057764699999 3.3810832391049996
O 4.42944214427 2.86697895138 8.065640152175
O 9.507693754269999 2.8350001913800003 8.041012887175
O 4.28606674729 -0.00232851757 8.3893168972
O 9.36431835729 -0.03430727757 8.3646896322
O 0.9053877307100001 8.71852871957 3.7174500548
O 5.983639340709999 8.686549959569998 3.6928227898
O 3.4173390053699997 4.35722550415 3.7132390117800003
O 8.49559061537 4.325246744149999 3.68861174678
O 1.7741154726300001 4.358974697849999 8.39352794022
O 6.852367082630001 4.32699593785 8.368900675219999
