40

Al 7.973310305527366 -0.0522127714682275 13.313466983727178
In 4.875286715 -0.019353955 -0.04012144
Al 8.917277606972632 1.3980360714682274 2.2555892812728233
In 4.041990891972634 1.4173900264682273 2.2957107212728234
Al 4.815742902499999 -0.027162895 5.195662250000001
Al 1.578783749472633 -0.0125249385317725 4.058902436272824
Al -0.07939175 -0.01041192 6.98104492
Al 8.072549993027366 -0.0391978714682275 4.587160833727177
Al 2.363967455 1.416900065 6.9631144350000005
Al 7.23925417 1.3975461100000002 6.922992995
Al 8.013006180527366 -0.0470068114682275 9.822944523727177
Al 4.7760470275 -0.032368855 8.686184710000001
Al 3.1178715280273663 -0.0302558364682275 11.608327193727177
In 1.5192399369726328 -0.0203338785317725 9.294686126272824
Al 5.561230733027367 1.3970561485317725 11.590396708727177
Al 10.436517448027367 1.3777021935317726 11.550275268727177
O 3.3016983687 -0.0149307158 1.1594950572000002
O 1.4803379794726328 -0.0254357193317725 12.715398137072825
O 5.6473232055 1.3552887898 1.1422817916
O 10.523067188299999 1.4508939518000001 1.1023307704
O 8.111451950527366 -0.0340960306682275 1.166448822927177
O 6.290091561300001 -0.0446010342 12.722351902800002
O 8.8311851345 1.4398034302 12.7037041984
O 3.955441151699999 1.3441982682 12.7436552196
O 6.498961646727366 -0.0347746322682275 5.786777330927177
O 4.836384757499999 -0.0244557958 3.3805905708000004
O 8.844586483527367 1.3354448733317723 5.769564065327177
O 3.9697570363273673 1.4697579453317726 5.809855924127177
O 1.5581418944726328 -0.0152320377317725 5.873974115472824
O 9.646138339327365 -0.0436211106682275 3.387544336527177
O 12.187231912527364 1.4407833537317725 3.3688966321271767
O 7.311487929727367 1.3451781917317724 3.408847653327177
O -0.0543484093273669 -0.0159106393317725 10.494302623472823
O 8.033648035527365 -0.0442997122682275 8.007872844527178
O 2.291276427472633 1.3543088662682274 10.477089357872824
O 7.167020410272633 1.4499140282682275 10.437138336672824
O 4.7554051725 -0.0350759542 10.5012563892
O 3.092828283272633 -0.0247571177317725 8.095069629072825
O 5.633921856472633 1.4596473466682276 8.076421924672825
O 10.508751303672632 1.3253342746682275 8.036130065872824
