80

In -0.0247673575 -0.061234955 6.13885902
In -0.0743020725 -0.183704865 18.41657706
In 4.9291266275 2.946083465 6.186760065
In 4.8795919125 2.823613555 18.464478105
In 3.3200941674999997 0.01251379 6.152576025
In 3.2705594524999997 -0.10995612 18.430294065
In 1.5842651024999999 2.87233472 6.17304306
In 1.5347303874999998 2.74986481 18.4507611
In 0.0 0.0 0.0
In -0.049534715 -0.12246991 12.27771804
Al 4.953893985 3.0073184200000003 0.047901045
In 4.90435927 2.8848485100000003 12.325619085
Al 3.344861525 0.073748745 0.013717005
In 3.2953268099999997 -0.048721165 12.291435045
In 1.6090324599999999 2.933569675 0.03418404
Al 1.5594977449999998 2.8110997650000003 12.31190208
Al -0.0546449871965 1.9003196111465 3.0876447132975
Al -0.1041797021965 1.7778497011465 15.3653627532975
Al -1.7904740521965001 4.760140541146501 3.1081117482975
In -1.8400087671965002 4.6376706311465 15.3858297882975
Al 3.2902165378034995 1.9740683561465 3.1013617182975
Al 3.2406818228034995 1.8515984461465 15.3790797582975
In 1.5543874728034996 4.833889286146501 3.1218287532974998
Al 1.5048527578034996 4.711419376146501 15.3995467932975
Al 1.6141427321965 0.9107801538535 9.2242573667025
Al 1.5646080171965 0.7883102438534999 21.5019754067025
In -0.1216863328034998 3.7706010838535 9.2447244017025
Al -0.1712210478034998 3.6481311738535 21.5224424417025
In 4.9590042571965 0.9845288988535 9.2379743717025
Al 4.9094695421965 0.8620589888535 21.5156924117025
In 3.2231751921965 3.8443498288535 9.2584414067025
In 3.1736404771965 3.7218799188535 21.5361594467025
O -0.062763726985 1.8802467928975 5.0999627000535
O -0.112298441985 1.7577768828975 17.3776807400535
O -1.7985927919850002 4.740067722897501 5.1204297350534995
O -1.848127506985 4.6175978128975 17.3981477750535
O 3.2820977980149997 1.9539955378975 5.1136797050534994
O 3.2325630830149996 1.8315256278975 17.3913977450535
O 1.5462687330149996 4.813816467897501 5.1341467400535
O 1.4967340180149997 4.691346557897501 17.4118647800535
O 1.6222614719850001 0.9308529721025 7.211939379946499
O 1.572726756985 0.8083830621024999 19.4896574199465
O -0.1135675930149998 3.7906739021024998 7.2324064149464995
O -0.1631023080149998 3.6682039921025 19.5101244549465
O 4.967122996985 1.0046017171025 7.225656384946499
O 4.917588281985 0.8821318071024999 19.5033744249465
O 3.231293931985 3.8644226471025 7.2461234199465
O 3.181759216985 3.7419527371025 19.5238414599465
O 1.6060239924080002 0.8907073356044999 11.2365753534585
O 1.5564892774080001 0.7682374256044999 23.514293393458498
O -0.1298050725919998 3.7505282656045 11.257042388458501
O -0.1793397875919998 3.6280583556045 23.534760428458497
O 4.9508855174079995 0.9644560806044999 11.2502923584585
O 4.9013508024079995 0.8419861706045 23.5280103984585
O 3.215056452408 3.8242770106045 11.270759393458501
O 3.165521737408 3.7018071006045 23.548477433458498
O -0.046526247408 1.9203924293955001 1.0753267265414999
O -0.096060962408 1.7979225193955 13.353044766541501
O -1.782355312408 4.780213359395501 1.0957937615414999
O -1.831890027408 4.6577434493955 13.3735118015415
O 3.2983352775919994 1.9941411743955002 1.0890437315415
O 3.2488005625919993 1.8716712643955 13.366761771541501
O 1.5625062125919997 4.853962104395501 1.1095107665415
O 1.5129714975919997 4.731492194395501 13.3872288065415
O -0.01238367875 -0.0306174775 3.06942951
O -0.06191839375 -0.1530873875 15.347147549999999
O 4.94151030625 2.9767009425000004 3.117330555
O 4.89197559125 2.8542310325000004 15.395048595
O 3.3324778462499998 0.0431312675 3.083146515
O 3.2829431312499997 -0.0793386425 15.360864555
O 1.5966487812499999 2.9029521975000003 3.10361355
O 1.5471140662499998 2.7804822875000004 15.38133159
O -0.03715103625 -0.0918524325 9.20828853
O -0.08668575125 -0.2143223425 21.48600657
O 4.91674294875 2.9154659875 9.256189575
O 4.86720823375 2.7929960775000002 21.533907615
O 3.3077104887499997 -0.0181036875 9.222005535
O 3.2581757737499997 -0.1405735975 21.499723575
O 1.5718814237499998 2.8417172425 9.24247257
O 1.5223467087499998 2.7192473325 21.52019061
