40

In 0.06079233125 -0.010128405 13.72677011125
In 0.00868461875 -0.001446915 1.96096715875
In 0.0855618532332185 3.6729864471382383 12.576464886092783
In 3.2170605067667815 1.8069651228617623 3.5658483939072156
In 3.18730646 -0.031698445 0.21906653
Ga -1.570733755 2.77746189 0.008221475
In 1.6165727049999998 2.745763445 0.227288005
In -1.5322950894832192 4.614678542861762 5.315970497657215
Ga 0.0384386655167811 1.8372166528617624 5.307749022657215
In 1.655011370516781 4.582980097861762 5.535037027657215
Ga 1.6476109894832185 0.8969714721382377 10.607276252342784
In 4.834917449483219 0.8652730271382376 10.826342782342783
Ga 3.264183694483219 3.642734917138238 10.834564257342784
In 0.068192616427988 3.675880277022485 8.654530725470158
In 3.234429743572012 1.8040712929775153 7.487782554529843
In 0.034738475 -0.00578766 7.843868635
O 4.788962010066781 0.8998153384617623 14.771612273207214
O 3.2810576052667813 3.5661787528617626 14.779504889207216
O 1.7291478084667813 0.9302458456617624 14.561308404407216
O 1.5734745515332194 4.549705724338239 1.5810048755927846
O -1.4863396500667811 4.580136231538239 1.3707010067927845
O 0.0215647547332189 1.913772817138238 1.3628083907927846
O 0.05176032775 -0.0086236134 11.68736426615
O 0.01771662225 -0.0029517066 4.00037300385
O 0.094593857427988 3.671481655422485 14.615870888070157
O 3.208028502572012 1.8084699145775154 1.5264423919298429
O 1.7320051902720113 2.6996457573775157 11.969755945229842
O 3.239909595072011 0.0332823429775155 11.961863329229843
O 4.791819391872011 2.6692152501775155 12.180059814029843
O -1.4891970318720116 2.8107363198224844 3.9622534659701567
O 1.5706171697279885 2.7803058126224847 4.172557334770157
O 0.0627127649279886 5.446669227022485 4.180449950770157
O -1.5782506254499997 4.6492209105999995 9.26123967055
O 0.0553124797500001 1.7606605450000001 9.252689336549999
O 1.7365480929500008 4.6162545278 9.489068861749999
O 1.56607426705 0.8636970422000001 6.65324441825
O 4.880872985449999 0.8307306594000001 6.88107360945
O 3.2473098802499996 3.7192910250000004 6.889623943449999
O 0.0591606122332185 3.6773850687382383 6.615124723492785
O 3.2434617477667818 1.8025665012617622 9.527188556507216
