40

In 0.9683454759499999 5.963626753670001 -0.02434323317
Al 4.390857684049999 3.1032651413300005 4.813474783169999
Ga 1.7325195756899998 1.4430909329700001 4.832443963129999
Ga 3.62668358431 7.62380096203 -0.04331241313
Ga 3.67819606533 1.4369999737000003 7.60412628808
Al 1.7094139528699999 7.647925514640001 2.7479883572399997
In 4.357341541429999 5.9530224032 2.7399869725799997
In 1.03026847677 3.1319030851400003 7.61212767274
Al 1.7140106922799998 7.73339864511 6.721391659069999
In 3.6646912519199994 1.34587170943 1.88623351385
Ga 1.017213848 3.1858592455099997 1.89376061547
In 4.3614880962 5.8934111090300005 6.713864557449999
Al 0.9417459978600001 0.30063160599 9.676486276319999
In 4.4668474835400005 8.79761486419 4.78487023732
Ga 1.80130642094 4.81608986159 4.811427945919999
In 3.60728706046 4.28215660859 9.64992856772
O 4.46195820329 6.08064236524 8.61236739948
O 0.9361435465100001 3.0109436140200003 3.7943681799999998
O 3.58474641203 1.5336671395400001 3.78565537078
O 1.81335533777 7.55791883972 8.621080208699999
O 2.8172010328100003 0.092660031 6.08156408976
O 2.5547703665899997 8.98233755578 1.20800237068
O 5.19436953931 4.603372588500001 1.20877522226
O 0.17760186009 4.47162499828 6.08079123818
O 5.2128131391400006 7.575508982280001 6.13222135849
O 0.16004906766 1.5000541178800002 1.33179404919
O 2.81799326446 3.03327945468 1.31323986689
O 2.5548689423399997 6.04228364548 6.15077554079
O 0.10885195343 7.502603804940001 1.1477646374
O 5.2623276171699995 1.57189110328 5.986736092159999
O 2.61349965933 2.9766253654400003 5.995686042899999
O 2.75767991127 6.097869542780001 1.13881468666
O 1.96322317677 1.56273928951 8.37813565073
O 3.43220615083 7.527150149610001 3.50525308703
O 0.77454331943 6.084602578210001 3.52351084243
O 4.620886008169999 3.00528686091 8.35987789533
O 4.48065367346 0.02347140494 8.69982076471
O 0.91814092654 9.06855441806 3.8425973292899998
O 3.55728991462 4.544505026140001 3.84384446391
O 1.8415046853800001 4.54752079686 8.69857363009
