80

Al -0.035286345 -0.0595201975 6.0910204225
In -0.105859035 -0.1785605925 18.273061267499997
Al 4.824378035 2.9379555025 6.1460744525
Al 4.753805345 2.8189151075 18.3281152975
In 3.25970103 0.0364721425 6.110335592499999
Al 3.18912834 -0.0825682525 18.2923764375
In 1.5293906599999998 2.8419631625 6.1267592825
In 1.45881797 2.7229227675 18.3088001275
In 0.0 0.0 0.0
Al -0.07057269 -0.119040395 12.182040845
In 4.85966438 2.9974757 0.05505403
Al 4.78909169 2.878435305 12.237094875
In 3.294987375 0.09599234 0.01931517
In 3.2244146849999997 -0.023048055 12.201356015
Al 1.5646770049999998 2.90148336 0.03573886
Al 1.494104315 2.782442965 12.217779705
Al -0.0728487730545001 1.872374462104 3.062895989165
Al -0.1434214630545001 1.7533340671039999 15.244936834165
In -1.8031591430545004 4.677865482104001 3.0793196791649997
Al -1.8737318330545005 4.558825087104001 15.261360524165
In 3.2221386019454994 1.968366802104 3.082211159165
Al 3.1515659119454997 1.8493264071039999 15.264252004165
In 1.491828231945499 4.7738578221040004 3.0986348491649998
In 1.4212555419454989 4.654817427104001 15.280675694165
In 1.5669530880544995 0.9100685028959998 9.154883715835
Al 1.4963803980544994 0.7910281078959999 21.336924560834998
In -0.1633572819455003 3.7155595228959997 9.171307405835
In -0.2339299719455003 3.596519127896 21.353348250834998
Al 4.8619404630545 1.006060842896 9.174198885834999
In 4.791367773054501 0.887020447896 21.356239730835
Al 3.1316300930545005 3.8115518628959997 9.190622575835
Al 3.0610574030545004 3.692511467896 21.372663420835
O -0.0844156369455001 1.8528637413634998 5.0595324836605
O -0.1549883269455001 1.7338233463635 17.241573328660497
O -1.8147260069455005 4.6583547613635 5.0759561736605
O -1.8852986969455006 4.5393143663635005 17.257997018660497
O 3.2105717380544996 1.9488560813634999 5.0788476536605
O 3.1399990480544995 1.8298156863635 17.2608884986605
O 1.480261368054499 4.7543471013635 5.0952713436604995
O 1.4096886780544988 4.6353067063635 17.2773121886605
O 1.5785199519454995 0.9295792236364998 7.158247221339499
O 1.5079472619454994 0.8105388286364998 19.3402880663395
O -0.1517904180545003 3.7350702436364998 7.174670911339499
O -0.2223631080545003 3.6160298486365 19.3567117563395
O 4.8735073269455 1.0255715636365 7.1775623913394995
O 4.8029346369455 0.9065311686365 19.3596032363395
O 3.1431969569455003 3.8310625836364998 7.193986081339499
O 3.0726242669455006 3.7120221886365 19.3760269263395
O 1.5553862241634995 0.8905577821554999 11.1515202103305
O 1.4848135341634996 0.7715173871554999 23.3335610553305
O -0.1749241458365003 3.6960488021554996 11.1679439003305
O -0.2454968358365003 3.5770084071554997 23.3499847453305
O 4.8503735991635 0.9865501221555 11.1708353803305
O 4.7798009091635 0.8675097271555 23.352876225330498
O 3.1200632291635007 3.7920411421554996 11.1872590703305
O 3.0494905391635005 3.6730007471554997 23.369299915330497
O -0.0612819091635001 1.8918851828444998 1.0662594946694999
O -0.1318545991635001 1.7728447878445 13.2483003396695
O -1.7915922791635006 4.6973762028445005 1.0826831846695
O -1.8621649691635005 4.578335807844501 13.2647240296695
O 3.2337054658364996 1.9878775228444998 1.0855746646695
O 3.1631327758364995 1.8688371278445 13.2676155096695
O 1.5033950958364988 4.7933685428445 1.1019983546694998
O 1.432822405836499 4.6743281478445 13.2840391996695
O -0.0176431725 -0.02976009875 3.04551021125
O -0.0882158625 -0.14880049375 15.22755105625
O 4.8420212075 2.9677156012499997 3.10056424125
O 4.7714485175 2.84867520625 15.28260508625
O 3.2773442024999997 0.06623224125 3.06482538125
O 3.2067715125 -0.05280815375 15.246866226249999
O 1.5470338325 2.8717232612499997 3.08124907125
O 1.4764611424999998 2.75268286625 15.263289916249999
O -0.0529295175 -0.08928029625 9.136530633749999
O -0.1235022075 -0.20832069125 21.31857147875
O 4.8067348625 2.9081954037499997 9.19158466375
O 4.7361621725 2.78915500875 21.37362550875
O 3.2420578575 0.00671204375 9.15584580375
O 3.1714851674999998 -0.11232835125 21.33788664875
O 1.5117474874999999 2.8122030637499997 9.17226949375
O 1.4411747974999998 2.69316266875 21.35431033875
