60

In -0.00260442315 0.00493549537 2.09285743445
Ga 5.25132447685 0.05367521537 2.09931186445
In -0.01134409815 0.02149756037 9.115868959450001
Ga 5.24258480185 0.07023728037 9.12232338945
In -0.01487492685 0.02818863463 11.95316561555
Ga 5.23905397315 0.07692835463 11.95962004555
In -0.00613525185 0.01162656963 4.93015409055
Ga 5.24779364815 0.06036628963 4.93660852055
Ga 2.60454684636279 1.55686379677348 6.774491029478391
In 7.858475746362791 1.60560351677348 6.7809454594783904
Ga 2.59580717136279 1.57342586177348 13.79750255447839
In 7.84973607136279 1.62216558177348 13.80395698447839
In 2.60975569266279 1.54699280603348 2.58877616057839
In 7.86368459266279 1.59573252603348 2.59523059057839
Ga 2.6010160176627903 1.5635548710334801 9.61178768557839
In 7.85494491766279 1.61229459103348 9.61824211557839
Ga -0.0422229626627899 3.06005703396652 11.449684239421611
Ga 5.21170593733721 3.10879675396652 11.45613866942161
Ga -0.0334832876627899 3.04349496896652 4.42667271442161
Ga 5.22044561233721 3.09223468896652 4.43312714442161
Ga -0.0370141163627899 3.0501860432265198 7.26396937052161
Ga 5.21691478363721 3.09892576322652 7.27042380052161
Ga -0.0282744413627899 3.0336239782265197 0.24095784552161
Ga 5.2256544586372105 3.08236369822652 0.24741227552161
O 1.6138402637 0.02329286626 3.51349372694
O 6.8677691637 0.07203258626 3.51994815694
O 1.7844585218599995 3.1734376238199995 3.5062724087
O 7.0383874218599995 3.2221773438199994 3.5127268387
O -0.8263962180600001 1.40203831742 3.50718850186
O 4.42753268194 1.4507780374199999 3.51364293186
O 0.78307420814 1.43361221618 10.5321879913
O 6.03700310814 1.48235193618 10.5386424213
O -1.8599999519400001 3.1562718025799996 10.52481746814
O 3.39392894806 3.2050115225799995 10.53127189814
O 3.6226092863 0.05857098374 10.53898375306
O 8.8765381863 0.10731070374 10.54543818306
O 4.22099153321279 1.57522116766348 8.19512732196839
O 9.47492043321279 1.62396088766348 8.20158175196839
O 1.80659771137279 0.15144021522348 8.19546865372839
O 7.060526611372789 0.20017993522348 8.20192308372839
O 1.78075505145279 2.95396661882348 8.18882209688839
O 7.03468395145279 3.00270633882348 8.19527652688839
O 3.4077048276527893 2.95241638758348 1.16779853632839
O 8.661633727652791 3.00115610758348 1.17425296632839
O 3.43354748757279 0.14988998398348 1.17444509316839
O 8.68747638757279 0.19862970398348 1.18089952316839
O 0.99331100581279 1.5286354351434799 1.16813986808839
O 6.24723990581279 1.5773751551434798 1.17459429808839
O 1.5742217241872098 3.07841440485652 12.870320531911611
O 6.828150624187211 3.12715412485652 12.876774961911611
O -0.8401720976527901 1.6546334524165198 12.87066186367161
O 4.41375680234721 1.7033731724165198 12.87711629367161
O -0.8660147575727898 4.45715985601652 12.864015306831611
O 4.387914142427211 4.505899576016519 12.87046973683161
O 0.7609350186272099 4.45560962477652 5.84299174627161
O 6.014863918627211 4.50434934477652 5.84944617627161
O 0.7867776785472101 1.6530832211765198 5.84963830311161
O 6.040706578547209 1.7018229411765198 5.85609273311161
O -1.6534588032127902 3.0318286723365198 5.84333307803161
O 3.6004700967872103 3.08056839233652 5.849787508031611
