20

In 10.8697883509 7.37292e-06 1.1885963490399998
Al -0.0791762509000001 -2.93292e-06 4.68241861096
Ga 4.720840310899999 1.55947139292 1.19922528904
Al 6.069763309099999 1.5594702670799998 4.67179511096
Ga 9.3085282386 1.55947307874 4.02422485436
Ga 1.4820753813999998 1.55946858126 1.8467955456399998
Ga 3.1595886786 -1.2126e-07 4.03484835436
In 7.631023421399999 4.56126e-06 1.83616660564
O 8.927260951 3.4467e-06 5.2263721986
O 1.8633511489999999 9.933e-07 0.6446427614
O 2.7783129109999996 1.5594674667 5.2370011386
O 8.012290709 1.5594741932999998 0.6340192614
O 9.511673651699999 5.52048e-06 2.5573450859199998
O 1.2789384482999997 -1.08048e-06 3.3136698740799995
O 3.3627256117 1.5594695404799999 2.56797402592
O 7.4278780083 1.5594721195199999 3.3030463740799996
O -1.0707183861 1.5594651248999998 4.37787238844
O 11.861322006099998 1.5594765351 1.49314801156
O 5.078229653899999 1.1049e-06 4.36724344844
O 5.7123824460999995 3.3351e-06 1.5037715115599999
