40

Al 11.75373370600243 2.005134101537483 2.8713044673823815
Al 8.348190027249696 1.9645516881182234 11.301416682679587
Al 5.030173296399215 1.9808997519005125 1.7479175491614836
Al 4.977657066399215 1.9467414294005125 12.538084531661484
Al 8.391953552249696 1.9930169568682234 2.309610863929587
In 11.709970181002431 1.9766688327874828 11.863110286132382
Al 9.227548121002432 0.5147519677874828 4.693338226132381
In 0.7924632172496967 0.4645334168682234 9.583368578929587
Al 6.69793436600243 1.9784188027874827 4.726306096132381
Al 3.3098960972496965 1.9492224968682235 9.559695983929588
Al 8.36569543654948 1.9759377951627792 7.704694499048481
Al 11.736228296702647 1.9937479944929273 6.4680266510134885
Al 5.003915181399215 1.9638205906505124 7.143001040411484
In 7.568539756399215 0.5229259706505124 -0.0834114845885166
Al 2.5214931213992147 0.5019037256505123 -0.0267710195885166
In 10.085972636399216 2.0076150506505126 -0.1070840795885166
O 7.584321070549481 0.5705712814627791 3.5370973415484803
O 2.435203032702647 0.526648339792927 10.73998127451349
O 11.762836519902647 2.0110548778929274 1.0010087132134882
O 8.33908721334948 1.9586309117627791 13.171712436848482
O 2.53776167054948 0.4316147998627791 3.5933659955484805
O 7.482736902702647 0.429736348192927 10.68296899851349
O 10.00105663534948 1.9958727982627793 3.5143716503484805
O 10.100867097902647 1.973812991392927 10.65834949971349
O 5.021070533547872 1.974979005694294 3.618213158988032
O 4.986759929947872 1.952662234994294 10.667788920888032
O 4.164720272549481 0.4460844713627791 1.1294698640484804
O 5.855778300702648 0.4152666766929271 13.146865130013488
O 9.211279672549482 0.5850409529627791 1.0732012100484805
O 10.902337700702649 0.554223158292927 13.090596476013488
O 6.782850467749481 1.990161114562779 1.1048503652484805
O 13.319073265502649 1.979524675092927 13.067870784813488
O 4.196282750747873 0.541374945394294 8.370487373688032
O 5.823241352747873 0.555844616894294 5.906591242188031
O 8.374798250449697 1.9818585715182235 5.8343987448795875
O 11.72712548280243 1.987827218137483 8.338322405182382
O 9.243816620747872 0.4444629537942939 8.313475097688032
O 0.7766819527478724 0.4168881352942939 5.962859896188031
O 6.613018315547873 1.9666764621942938 8.34776168248803
O 3.394812147947872 1.9609647784942938 5.938240397388031
