40

In 0.0268423055447075 3.7340926749435313 15.140805785625199
In 1.6514541049066187 2.7763184550078757 2.6356333676628845
In 3.2270430449066185 -0.0454994249921242 2.6377826026628846
In -1.5802580100933814 2.8222116700078757 2.6309950376628843
In 3.258556892048674 1.8200209475485924 0.0047516167119171
In -0.0081708725933814 0.0006891325078758 4.6080024376628845
In -1.5627513729513265 4.688913412548593 7.8973967117119175
In 0.0128375670486737 1.8670955325485925 7.899545946711918
In 1.6689607420486738 4.6430201975485925 7.902035041711917
In 0.0443513180447075 3.7326159624435316 5.266514960625199
Ga 0.0338459105447075 3.7335019899435316 11.1910894556252
In 3.241047879548674 1.8214976600485924 9.879042441711917
Ga 4.837645163044709 0.8660862374435313 13.172735185625198
In 3.262056223044708 3.6879041174435314 13.170585950625199
In 1.6059330480447078 0.9119794524435313 13.1680968556252
In -0.0186762800933814 0.0015751600078758 10.532576932662884
O 4.794512003948674 0.9025542300485926 1.3498271897119172
O 3.2819466215486743 3.6114993948485927 1.3477639241119173
O 1.692068373548674 0.9466117164485925 1.3453743929119173
O -0.0255398129933814 0.0021540313078758 14.403298936062885
O 0.0512148509447075 3.7320370911435314 1.3957929572251986
O 1.6945873601486738 2.7398504050485926 14.458541363711918
O 3.207152742548674 0.0309052402485927 14.460604629311918
O 4.797030990548673 2.6957929186485923 14.462994160511919
O 1.5803064299447076 2.815149244943531 6.611590533625199
O 0.0677410475447075 5.524094409743531 6.609527268025199
O -1.5221372004552924 2.859206731343531 6.607137736825199
O 3.251693359148674 1.8205998188485923 3.8754736201119173
O -0.0118127471933814 0.0009962887078758 6.661854929262885
O -1.4916037938552924 4.650082679943531 3.9214393876251985
O 0.0209615885447076 1.9411375151435313 3.9235026532251984
O 1.6108398365447076 4.606025193543531 3.9258921844251984
O -1.6338990481933815 4.727744202507876 11.873354035662885
O 0.0047134494066187 1.7930536073078756 11.875589240062885
O 1.7270815514066185 4.680015258907876 11.878177898862885
O 0.0374877851447075 3.7331948337435312 9.137236964025199
O 3.237406004948674 1.8218048162485925 11.932894933311918
O 4.908792838006618 0.8272554475078757 9.196778019662887
O 3.2701803404066183 3.7619460427078755 9.194542815262885
O 1.5478122384066189 0.8749843911078756 9.191954156462886
