40

Ga -0.0243681832294148 3.7544791575567196 15.119348321932504
In 1.648480093148832 2.8178426649146684 2.6393122508988203
In 3.263171203148832 -0.0285660500853316 2.6401939458988206
In -1.6239161868511682 2.8421421349146683 2.6273927258988206
In 3.265977910080583 1.8556066925286119 5.9289222321686745
In -0.0161438843511682 -0.0074665150853316 4.599480197148821
In -1.6280282874194176 4.723114942528611 7.887326788418674
In -0.0133371774194175 1.876706227528612 7.8882084834186745
In 1.6443679925805827 4.6988154725286115 7.899246313418675
In 0.0102258542705852 3.7704788325567193 5.263319440682504
In -0.0105305682294148 3.7608790275567197 11.176936769432503
In 3.252140295080583 1.8492068225286118 9.871333784668675
In 4.869638014270587 0.8869709075567195 13.160943765682504
In 3.254946904270586 3.7333796225567193 13.160062070682503
In 1.5972417342705856 0.9112703775567195 13.149024240682504
In -0.0369003068511682 -0.0170663200853316 10.51309752589882
O 4.845897508280583 0.9444039225286122 1.359821221668675
O 3.295794042680583 3.6769562889286127 1.3589747944686748
O 1.7043970794805825 0.9677314137286122 1.348378477668675
O -0.0504611695511682 -0.0233381926853316 14.37666084734882
O 0.0237867169705852 3.7767507051567195 1.3997561192325045
O 1.6722206968805826 2.760409592528612 14.440434795168676
O 3.222324162480583 0.0278572261286121 14.441281222368675
O 4.8137211256805825 2.737082101328612 14.451877539168676
O 1.5693890299705857 2.8496762575567196 6.607835758932504
O 0.0192855643705858 5.582228623956719 6.606989331732504
O -1.5721113988294144 2.8730037487567195 6.596393014932504
O 3.2731734698805828 1.8589346249286118 3.8788682248686746
O -0.0233394441511682 -0.0107944474853316 6.649534204448821
O -1.5489373214294144 4.691281407556719 3.918803122432504
O 0.0011661441705858 1.9587290411567195 3.919649549632504
O 1.5925631073705857 4.667953916356719 3.930245866432504
O -1.7071193511511682 4.754948534914668 11.85585045414882
O -0.0278405967511683 1.7946834713146684 11.85676741694882
O 1.6961727800488327 4.729677086114668 11.86824676014882
O -0.0033350084294148 3.7642069599567196 9.126882762132503
O 3.2449447352805825 1.8458788901286118 11.921387791968675
O 4.948729077448832 0.8551373149146684 9.192420257648822
O 3.2694503230488317 3.8154023785146687 9.191503294848822
O 1.5454369462488318 0.8804087637146684 9.18002395164882
