80

Al -0.082115465 -0.0468285325 5.8695269075
In -0.246346395 -0.1404855975 17.6085807225
Al 4.353298 2.8732132425 5.9540540875
Al 4.18906707 2.7795561775 17.6931079025
Al 2.9787577049999996 0.1327358375 5.9136519875
Al 2.814526775 0.0390787725 17.6527058025
Al 1.2924248299999999 2.6936488725 5.9099290075
Al 1.1281938999999999 2.5999918075 17.6489828225
Al 0.0 0.0 0.0
Al -0.16423093 -0.093657065 11.739053815
Al 4.435413465 2.920041775 0.08452718
Al 4.2711825349999994 2.82638471 11.823580995
Ga 3.06087317 0.17956437 0.04412508
Al 2.89664224 0.085907305 11.783178895
Ga 1.3745402949999999 2.740477405 0.0404021
Al 1.2103093649999999 2.64682034 11.779455915
Al -0.1449781994139999 1.7435391674019998 2.946988604446
Al -0.3092091294139999 1.6498821024019998 14.686042419446
Al -1.8313110744140002 4.304452202402 2.943265624446
Al -1.9955420044140002 4.210795137402 14.682319439446
Al 2.915894970586 1.9231035374019998 2.9911136844460002
Ga 2.751664040586 1.8294464724019999 14.730167499446
Al 1.2295620955859996 4.484016572402001 2.987390704446
Al 1.0653311655859996 4.3903595074020005 14.726444519446
Al 1.3552875644140001 0.903281172598 8.832467310554
Al 1.1910566344140001 0.809624107598 20.571521125554
Al -0.3310453105859997 3.4641942075979997 8.828744330554
Al -0.4952762405859997 3.3705371425979993 20.567798145554
Al 4.4161607344139995 1.082845542598 8.876592390554
Al 4.251929804413999 0.989188477598 20.615646205554
Al 2.729827859414 3.6437585775979997 8.872869410554
Al 2.565596929414 3.5501015125979993 20.611923225554
O -0.1718956488409999 1.7281887744484998 4.8710195247245
O -0.3361265788409999 1.6345317094485 16.6100733397245
O -1.8582285238410001 4.2891018094485 4.8672965447245
O -2.022459453841 4.1954447444485 16.606350359724498
O 2.888977521159 1.9077531444484999 4.9151446047244995
O 2.724746591159 1.8140960794485 16.654198419724498
O 1.2026446461589997 4.4686661794485 4.9114216247244995
O 1.0384137161589997 4.375009114448501 16.6504754397245
O 1.382205013841 0.9186315655514999 6.9084363902755
O 1.217974083841 0.8249745005514999 18.647490205275503
O -0.3041278611589997 3.4795446005514994 6.9047134102755
O -0.4683587911589998 3.3858875355514995 18.6437672252755
O 4.443078183840999 1.0981959355515 6.9525614702755
O 4.278847253841 1.0045388705515 18.6916152852755
O 2.756745308841 3.6591089705514994 6.9488384902755
O 2.592514378841 3.5654519055514995 18.6878923052755
O 1.328370114987 0.8879307796445 10.7564982308325
O 1.164139184987 0.7942737146444999 22.4955520458325
O -0.3579627600129998 3.4488438146444995 10.752775250832501
O -0.5221936900129998 3.3551867496444996 22.491829065832498
O 4.389243284987 1.0674951496445 10.800623310832501
O 4.225012354986999 0.9738380846445 22.5396771258325
O 2.702910409987 3.6284081846444995 10.7969003308325
O 2.538679479987 3.5347511196444996 22.5359541458325
O -0.1180607499869999 1.7588895603555 1.0229576841674999
O -0.2822916799869999 1.6652324953554998 12.762011499167501
O -1.804393624987 4.3198025953555 1.0192347041675
O -1.968624554987 4.2261455303555 12.7582885191675
O 2.942812420013 1.9384539303555 1.0670827641675
O 2.778581490013 1.8447968653554998 12.8061365791675
O 1.2564795450129997 4.499366965355501 1.0633597841675
O 1.0922486150129997 4.4057099003555 12.802413599167501
O -0.0410577325 -0.02341426625 2.93476345375
O -0.2052886625 -0.11707133125 14.67381726875
O 4.3943557325 2.89662750875 3.01929063375
O 4.2301248025 2.80297044375 14.75834444875
O 3.0198154374999997 0.15615010375 2.97888853375
O 2.8555845074999997 0.06249303875 14.71794234875
O 1.3334825625 2.71706313875 2.97516555375
O 1.1692516325 2.62340607375 14.71421936875
O -0.1231731975 -0.07024279875 8.80429036125
O -0.2874041275 -0.16389986375 20.54334417625
O 4.3122402675 2.8497989762500002 8.88881754125
O 4.1480093375 2.75614191125 20.62787135625
O 2.9376999725 0.10932157125 8.84841544125
O 2.7734690425 0.01566450625 20.58746925625
O 1.2513670974999997 2.67023460625 8.84469246125
O 1.0871361674999998 2.57657754125 20.58374627625
