80

Ga 1.67967119649 7.533723392880001 6.571385158819999
Ga 6.8372906364900015 7.50740992788 6.546048773819999
In 3.56426280309 1.30406819302 1.8440520653599999
In 8.721882243090002 1.2777547280200001 1.81871568036
Ga 0.99451014093 3.1037538325400003 1.8524967105599999
Ga 6.1521295809300005 3.0774403675400004 1.82716032556
In 4.249423858650001 5.73403775336 6.562940513619999
Ga 9.40704329865 5.707724288360001 6.537604128619999
Ga 0.95271657312 5.814775141345001 -0.018293104615
Ga 6.110336013120001 5.788461676345 -0.043629489615
Ga 4.27293757188 3.0142450786550006 4.704532554615
Ga 9.430557011880001 2.9879316136550003 4.6791961696149995
Ga 1.6858778586000003 1.4000685493150002 4.7210479387149995
Ga 6.8434972986 1.3737550843150002 4.695711553714999
Al 3.586171856400001 7.451214020685001 9.430160481284998
Ga 8.7437912964 7.424900555685 9.404824096285
Ga 0.9141743479500001 0.2831455008300001 9.45062022885
Al 6.07179378795 0.25683203583 9.42528384385
Ga 4.35778257591 8.56809254447 4.681658253209999
Ga 9.51540201591 8.54177907947 4.65632186821
Al 1.7592446111100002 4.68980017257 4.70352625171
In 6.91686405111 4.663486707570001 4.6781898667099995
Al 3.5127123127500006 4.1614378727300005 9.42875223035
Ga 8.67033175275 4.13512440773 9.403415845349999
Ga 3.5765220264300006 1.3880355399950002 7.428292497615
Al 8.73414146643 1.361722074995 7.402956112615
Al 1.6757631757500002 7.453763268905 2.6908391411649997
Al 6.83338261575 7.427449803905 2.6655027561649995
Ga 4.2462332286299995 5.795584869545001 2.6820599575649995
Ga 9.403852668630002 5.769271404545001 2.6567235725649994
Ga 1.00605197355 3.0462139393550007 7.4370716812149995
In 6.163671413550001 3.0199004743550004 7.411735296214999
O 4.3470936592500005 5.914837895255 8.417225540195
O 9.50471309925 5.888524430255 8.391889155194999
O 0.9150274037700001 2.931680531845 3.708479520225
O 6.07264684377 2.9053670668450002 3.683143135225
O 3.4865735427300004 1.4857629927250002 3.699198529025
O 8.64419298273 1.4594495277250004 3.6738621440249997
O 1.7755475202900002 7.360755434375 8.426506531394999
O 6.93316696029 7.334441969375 8.401170146395
O 2.7373365518100004 0.079786271615 5.9399757021549995
O 7.894955991810001 0.053472806615 5.914639317154999
O 2.5002876502499998 8.754977634685002 1.188225742105
O 7.65790709025 8.728664169685002 1.1628893571049999
O 5.05748597481 4.478915292365001 1.1856355189049999
O 10.215105414810003 4.452601827365001 1.160299133905
O 0.18013822725 4.355848613935001 5.942565925355
O 5.33775766725 4.329535148935 5.917229540355
O 0.12005828841 7.316454518145 1.127589746045
O 5.27767772841 7.290141053145 1.1022533610449998
O 5.11682358453 1.5179531905549999 5.849172194695
O 10.274443024530001 1.4916397255549998 5.823835809695
O 2.5449187502100004 2.893117109595001 5.858620455094999
O 7.70253819021 2.8668036445950005 5.833284070095
O 2.69196312273 5.941290599105002 1.1181414856449998
O 7.84958256273 5.914977134105001 1.092805100645
O 5.08024529754 7.37353578717 5.996564513889999
O 10.23786473754 7.3472223221699995 5.97122812889
O 0.15821402478 1.4616288414300003 1.30200637183
O 5.315833464780001 1.4353153764300002 1.27666998683
O 2.7446460211800003 2.9519865356300006 1.28578370883
O 7.902265461180001 2.9256730706300003 1.26044732383
O 2.4938133011400003 5.88317809297 6.01278717689
O 7.651432741140001 5.85686462797 5.98745079189
O 1.9097014578600002 1.5132944609350003 8.183962222535
O 7.06732089786 1.4869809959350002 8.158625837534998
O 3.3499142443800003 7.332021799265 3.430634513505
O 8.507533684380002 7.305708334265 3.4052981285049997
O 0.7639306171800002 5.930106130165001 3.4466480900049996
O 5.92155005718 5.9037926651650015 3.4213117050049995
O 4.49568508506 2.9152101300350006 8.167948646034999
O 9.65330452506 2.8888966650350008 8.142612261035
O 4.35357070176 0.00688226077 8.49726994649
O 9.511190141760002 -0.01943120423 8.47193356149
O 0.9091998992400001 8.839947839230001 3.76094467951
O 6.06681933924 8.813634374230002 3.73560829451
O 3.46568083308 4.42237825675 3.75868899471
O 8.62330027308 4.39606479175 3.73335260971
O 1.7970897679200004 4.424451843250001 8.49952563129
O 6.954709207920001 4.3981383782500005 8.474189246289999
