40

Al 11.554682264298732 1.8840549362818972 2.2775495563626786
In 7.43091228609658 1.9086271181782575 11.12605796376108
In 4.928277792253116 2.012435112272847 1.5107035231711892
Al 3.955596424753116 1.964893587272847 12.589021413171189
In 8.24148009234658 1.9482450556782573 1.8941263887610802
In 10.744114458048731 1.8444369987818974 11.509481131362678
In 8.837490178048732 0.3377814387818972 4.288683291362678
Ga -0.0129127926534201 0.4705241806782573 9.79247777376108
Al 6.341708588048733 1.9684547337818974 4.471994576362678
Ga 2.54216573234658 2.0088740906782574 9.627730353761079
In 7.755139395627495 1.9244742925443703 7.4332854814719855
Al 11.230455154767817 1.8682077619157844 5.970322038651773
Al 4.441937108503116 1.9886643497728471 7.049862468171189
In 7.586172943503117 0.3896854047728471 -0.5189940768288107
In 2.535312828503116 0.4820087897728471 -0.1709353718288107
Ga 10.141251468503116 1.9280353147728468 -0.6837414968288107
O 7.294642710527495 0.4364976187443704 3.1964479682719853
O 1.5323065522678174 0.4985689289157843 10.885455651451773
O 11.723280380967816 1.8922954679157844 0.3573076410517735
O 7.262314169427495 1.9003865865443703 13.046299879071986
O 2.2414107181274954 0.4020600755443704 3.543764118671985
O 6.580794789867817 0.2794846157157843 10.536654391851773
O 9.747518094527495 1.9133135323443704 3.038290445071985
O 9.238076455867816 1.8793685221157843 10.365317075051774
O 4.759679739654687 2.0041946120398455 3.430945287476241
O 4.124194579554687 1.9731341490398453 10.66877964227624
O 4.078160398227495 0.3832926713443705 0.9212999446719855
O 4.744045109767818 0.2982520199157843 13.159118565851772
O 9.131392390627495 0.4177302145443705 0.5739837942719855
O 9.797277102167818 0.3326895631157843 12.811802415451773
O 6.735442064227495 1.9831765777443704 0.7499626278719855
O 12.250152486167817 1.809505476715784 12.653644892251773
O 3.4950997907546872 0.4769169442398454 8.352183896676241
O 5.331849470854688 0.4581495400398454 5.72971972267624
O 7.92373751229658 1.9327148241782575 5.51304356616108
O 11.061857038098731 1.8599672302818973 7.890563953962679
O 8.543588028354687 0.2578326310398453 8.00338263707624
O 0.2786174784546871 0.4237119968398453 6.07703587307624
O 5.947975174754687 1.9537328578398452 8.19402637347624
O 2.935899144454687 2.0235959032398454 5.90569855627624
