80

Al 7.074389635000001 2.3571473275 7.052544115
Ga 2.3559922250000005 7.057218982500001 7.069846885
Al 7.055560130000001 7.0737033125 2.3504992799999997
Al 7.065403710000001 7.066315552500001 7.05981012
In 2.3461486450000004 7.0646067425000005 2.360536045
Al 7.064546055000001 2.3645350874999997 2.343233275
Al 2.3649781500000002 2.3480507575 7.06258088
In 2.35513457 2.3554385174999997 2.35327004
In 7.065585925400001 4.3952018807 4.70102760916
Al 2.3373449354 9.1026612957 0.00901953916
Al 7.0545202596 5.0430365193 -0.00729505416
Ga 4.7051068140600005 7.06596351518 4.38993994538
Al 0.01452483406 2.34031096018 9.10202154538
Al -0.00296594406 7.055862209820001 5.04044298462
Al 4.394950949020001 4.70656458824 7.061878000019999
In 9.10350477902 0.01388069324 2.33526439002
Al 5.044416835980001 -0.00136650324 7.053246994979999
In 2.3549523546000004 5.0265521893 4.712052550839999
Al 7.0635061846000005 0.3338682943 -0.01456105916
In 2.3463308604 4.393493070700001 0.00175353416
Al 4.715431465940001 2.35579055482 5.02314021462
Al -0.01280952406 7.06324996982 0.33113214462
Al 0.00468125406 2.34769872018 4.39271070538
In 5.0255873309800005 4.7151894817599995 2.3512021599799997
Al 0.3350053509800001 -0.01046307324 7.063283759979999
Al 4.394093294020001 0.00478412324 2.34530115502
Al 2.3639382796 0.3173839643 4.704786545839999
In 4.705587885940001 2.3631783148200003 0.31382937462
Al 0.31617584598 4.70609291176 2.36123892498
Al 7.0566000004000005 9.104370105700001 4.70829361416
In 4.714950394060001 7.05857575518 9.099250785379999
In 9.10436243402 4.7156611582400005 7.0518412350199995
O 5.84555802501 3.68415655763 6.17185224939
O 3.5797557732900005 8.38618063127 7.954636777429999
O 8.280690553910002 5.74947188013 1.46049026977
O 5.84534134779 5.73457610597 7.9457211034099995
O 6.17530300088 5.84552607052 3.6785226873999997
O 7.960198543240001 3.58115787284 8.380572021359999
O 1.4655106357600003 8.281975914160002 5.745597301239999
O 7.95033352012 5.84572531748 5.728008389999999
O 3.6831762868700006 6.17638140654 5.84122968993
O 8.384484145670001 7.959671353939999 3.57345573961
O 5.75058428093 1.46733765086 8.27842929219
O 5.73310098653 7.950994763659999 5.83958567827
O 3.5749802549900003 5.737597512369999 3.2412279106099997
O 5.84078250671 1.0355734387300002 1.4584433825699998
O 1.13984772609 3.6722821898699998 7.952589890229999
O 3.575196932210001 3.68717796403 1.4673590565899999
O 3.24523527912 3.5762279994799995 5.7345574726
O 1.4603397367600002 5.84059619716 1.03250813864
O 7.95502764424 1.13977815584 3.6674828587599997
O 1.47020475988 3.57602875252 3.68507177
O 5.7373619931299995 3.24537266346 3.57185047007
O 1.03605413433 1.46208271606 5.83962442039
O 3.6699539990700005 7.954416419139999 1.1346508678099998
O 3.687437293470001 1.47075930634 3.5734944817299996
O 1.11731703501 8.39161597263 1.47984417939
O 8.288309603290001 3.69349673627 3.2280231674299995
O 3.5901085739100007 1.02381932513 6.17257186977
O 1.13507220779 1.02369907097 3.2391810234099996
O 1.4847210208800001 1.11987351552 8.3906042874
O 3.23195755324 8.288617287840001 3.68856395136
O 6.174064465760001 3.5892920191599997 1.0189836912399999
O 3.2400643801199998 1.1348482824800001 1.02146831
O 8.39173011687 1.48369751154 1.1146160799299998
O 3.693902165670001 3.23401879894 8.28553733961
O 1.02234329093 6.17479706586 3.58642122219
O 1.02283184653 3.24011772866 1.1330455982699998
O 8.30322124499 1.03013809737 7.933235980609999
O 1.1322286767099998 5.728257333729999 6.18505699257
O 5.83042970609 8.39793474487 3.2405082902299993
O 8.285466072210001 8.39805499903 6.17389913659
O 7.935817259120001 8.30188055448 1.0224758725999998
O 6.18858072676 1.13313678216 5.72451620864
O 3.2464738142400003 5.83246205084 8.394096468759999
O 6.18047389988 8.28690578752 8.39161185
O 1.02880816313 7.93805655846 8.29846408007
O 5.72663611433 6.18773527106 1.12754282039
O 8.398194989070001 3.24695700414 5.8266589378099995
O 8.39770643347 6.181636341340001 8.28003456173
