40

Ga -1.0077026574999999 -0.05918150875 12.82760178875
In -0.1439575225 -0.00845450125 1.83251454125
Ga 2.417359191886833 -0.1046156902883881 11.398791432253896
Ga 6.418251208113168 -0.1162318697116119 2.639923197746103
In 5.698463595613168 -0.1585043759616119 11.802495903996103
In 3.1371468043868327 -0.0623431840383881 2.2362187260038966
In 4.99363529 -0.076605775 -0.31070085
Al 3.801982630613167 1.4672769490383881 4.636913473996103
Ga 5.082640949386833 1.419196355961612 9.420051776003897
Ga 10.076276239386832 1.342590580961612 9.109350926003897
Al 8.795617920613168 1.3906711740383881 4.326212623996103
In 1.2806583956131674 -0.0480805959616119 4.783138588996103
Al 7.554952004386833 -0.1727669640383881 9.255576041003897
Ga 2.705274225370231 -0.0877066884647482 7.73376249635506
Ga 6.13033617462977 -0.1331408715352518 6.30495213364494
Al -0.57583009 -0.033818005 7.330058165
O 9.82071297751317 1.3872045619883882 12.797107400446102
O 9.053141709686834 1.4703500276116122 0.6391861743538968
O 4.057545892486832 1.422662968011612 0.9491569995538968
O 4.825117160313167 1.339517502388388 13.107078225646102
O -0.8579868341 -0.05038882745 10.92178666585
O -0.2936733459 -0.01724718255 3.7383296641499997
O 7.198535773113169 -0.1887672848116119 12.949181520046103
O 1.6370746268868328 -0.0320802751883881 1.0895331099538967
O 2.2676433569702312 -0.1134083722647482 13.304606701755059
O 6.567967043029769 -0.1074391877352518 0.73410792824494
O 6.618862695229769 1.3265017767647482 10.51543403094494
O 2.263800357570231 1.435678693635252 3.5408011942550597
O 7.259396174770231 1.483365753235252 3.2308303690550595
O 11.61445851242977 1.3741888363647483 10.20546320574494
O 4.198391429629769 -0.1282414664352518 10.65581014134494
O 4.637218970370231 -0.0926060935647482 3.38290448865506
O 3.5464192919 1.51189093295 8.324669661449999
O 5.3401648153000005 1.4988752066500002 5.73302561335
O 10.331839578099999 1.2979765970500001 5.42159473855
O 8.538094054700002 1.31099232335 8.01323878665
O 2.8549900602868328 -0.0789140064883881 5.8279472268538965
O 5.980620339713168 -0.1419335535116119 8.210767403146104
O 0.9242420875000001 -0.06408091385 8.476743781049999
O 7.9113683125 -0.15676664615 5.56197084895
