80

Ga 7.5509104575 2.5117084149999997 7.553798385
In 2.5164037224999998 7.545662929999999 7.557466375
In 7.5510681925 7.550059439999999 2.52330107
In 7.5507353025 7.546041764999999 7.55767107
In 2.5167366125 7.549680604999999 2.523096375
Ga 7.5512433475 2.51572609 2.519428385
Ga 2.5165788774999998 2.51132958 7.55359369
Ga 2.5169117675 2.515347255 2.51922369
In 7.551001235539999 4.6885492597 5.03828638492
In 2.51682739054 9.7265214497 0.00758437492
In 7.55131030446 5.3772362703 0.00444307008
In 5.033758594019999 7.548134386899999 4.6980465625
In -0.00073072098 2.5094045269 9.7283391825
In -0.00061825902 7.547209148099999 5.3825161875
In 4.69132254256 5.02865991172 7.55561846074
In 9.72616216756 -0.00127692828 2.51758047074
In 5.37616679244 -0.00562191672 7.55177361426
In 2.51664583446 5.3728397603 5.03860837508
In 7.55148545946 0.3429029203 0.00057038508
In 2.51700254554 4.6921880997 0.00371168992
In 5.0338884759799996 2.5132546331 5.3788481975
Ga -0.00028536902 7.5512268230999995 0.3481461875
In -0.00039783098 2.5134222019 4.6939691825
In 5.3763245274400004 5.03272910828 2.52127629926
In 0.34183521244 -0.00600075172 7.55156891926
Ga 4.69183058756 -0.00165576328 2.51737577574
Ga 2.5168209894599998 0.3385064103 5.03473569008
In 5.03422136598 2.5172723081 0.3444781975
In 0.34199294744 5.03235027328 2.52107160426
In 7.550826080539999 9.722882609700001 5.04215906992
Ga 5.03342570402 7.544116711899999 9.7324165625
In 9.725654122559998 5.0290387467199995 7.55582315574
O 6.24199743631 3.9320472455 6.60837570147
O 3.8252179562700004 8.964688108899999 8.50507325287
O 8.86010638033 6.1312312552999995 1.57580063353
O 6.24179590209 6.1255059403 8.50298731213
O 6.6045655207800005 6.23992856367 3.94194802924
O 8.49722537926 3.81957332263 8.97453610576
O 1.56999772014 8.85565136437 6.13874245044
O 8.497329054820002 6.23831929933 6.1370103145599995
O 3.9362047086000005 6.600359687169999 6.24785983421
O 8.97063021752 8.495576345769999 3.8330230587700003
O 6.1311753296800005 1.5641023182299998 8.86194879623
O 6.1311074192 8.493434198829998 6.24940521079
O 3.82564963369 6.1293417745 3.4685190585299996
O 6.242429113729999 1.0967009111 1.57182150713
O 1.20754068967 3.9301577647 8.501094126469999
O 3.8258511679100002 3.9358830797 1.57390744787
O 3.4630815492199996 3.8214604563299996 6.13494673076
O 1.57042169074 6.24181569737 1.10235865424
O 8.49764934986 1.20573765563 3.93815230956
O 1.57031801518 3.82306972067 3.93988444544
O 6.1314423613999995 3.4610293328299995 3.8290349257900003
O 1.09701685248 1.5658126742299998 6.24387170123
O 3.93647174032 8.49728670177 1.21494596377
O 3.9365396508000003 1.5679548211699998 3.82748954921
O 1.20782359131 8.9700194355 1.57767369147
O 8.860057581269999 3.9347512689000004 3.4670352628699996
O 3.82561706533 1.0925013953 6.60609325353
O 1.20797236709 1.0948114302999998 3.4645399321299997
O 1.57007620578 1.2011987036699998 8.97224064924
O 3.4630515342599995 8.857545512629999 3.94383409576
O 6.60483734514 3.82571452437 1.10070446044
O 3.4635055198199995 1.2076247893299998 1.09856293456
O 8.971044333599998 1.57042284717 1.20982184421
O 3.93614090252 3.4568464857699994 8.86331567877
O 1.09700148468 6.60207450823 3.83124678623
O 1.0972838842 3.4627396888299997 1.21095783079
O 8.859823478689998 1.0913695844999998 8.49922106853
O 1.20758948873 6.1266377511 6.60985949713
O 6.24203000467 8.968887624699999 3.4708015064699995
O 8.859674702909999 8.9665775897 6.61235482787
O 8.49757086422 8.86019031633 1.10465411076
O 6.604595535740001 1.2038435073699998 6.13306066424
O 3.4628097248599996 6.2356744956300005 8.97619029956
O 6.6041415501800005 8.853764230669999 8.97833182544
O 1.0966027364 8.49096617283 8.86707291579
O 6.13150616748 6.604542534229999 1.21357908123
O 8.97064558532 3.4593145117699997 6.24564797377
O 8.9703631858 6.59864933117 8.86593692921
