40

Ga 7.999509499999022 -0.0559383535403065 13.384831703898646
Al 4.89891864 -0.01739411 -0.043603465
Al 8.957738603750977 1.4089570447903064 2.263378889851354
Ga 4.0588199637509765 1.4263511547903065 2.3069823548513537
Al 4.83421456125 -0.02793904625 5.22237643625
Al 1.5826475175009767 -0.0139996539596935 4.081227703601354
Al -0.086272105 -0.014059915 7.021306535
Al 8.107349631249022 -0.0383634597903065 4.608198535148646
Ga 2.368332315 1.422775915 7.00238782
Ga 7.267250955 1.405381805 6.958784355
Al 8.042645552499023 -0.0489083960403065 9.874178436398646
Ga 4.79107850875 -0.03496900375 8.73302970375
Al 3.1221588862490224 -0.0350292647903065 11.673108535148646
Al 1.5179434387509767 -0.0245445902096935 9.347207604851354
Al 5.576763306249022 1.4018065652096934 11.654189820148646
Al 10.475681946249022 1.3844124552096932 11.610586355148646
O 3.31659841735 -0.01421818035 1.1639717547500001
O 1.4756701073009768 -0.0314339485596935 12.787647807001354
O 5.6730186605499995 1.36514421645 1.14580978835
O 10.572348908550001 1.46339273725 1.10243696475
O 8.149622962699022 -0.0314741014403065 1.1677583329986463
O 6.30869465265 -0.04868986965 12.79143438525
O 8.861483249449998 1.44561939355 12.771758921650001
O 3.9621530014499995 1.34737087275 12.81513174525
O 6.525029408599022 -0.0351875301403065 5.815773754898646
O 4.85664530855 -0.02428346835 3.3968367371499997
O 8.881449651799024 1.3441748666596935 5.797611788498646
O 3.9829426197990236 1.4772116074596935 5.841445894898646
O 1.5602167702009768 -0.0176552318596935 5.906767402701354
O 9.689669853899023 -0.0415393894403065 3.400623315398646
O 12.242458450699024 1.4527698737596935 3.380947851798646
O 7.343128202699023 1.3545213529596936 3.424320675398646
O -0.0643767838990231 -0.0213686605596935 10.554782824601354
O 8.065076299799022 -0.0452528181403065 8.048638737298646
O 2.2920434593009764 1.3579937362403065 10.536620858201353
O 7.191373707300977 1.4562422570403064 10.493248034601354
O 4.76864776145 -0.03862458165 10.55856940285
O 3.1002636614009766 -0.0277205198596935 8.139632385101354
O 5.653052258200976 1.4665887433403064 8.119956921501354
O 10.551559290200975 1.3335520025403063 8.076122815101355
