80

Ga 1.71401069384 7.73339864511 6.721391660629999
In 7.020332668840002 7.71680529511 6.694361815629999
In 3.6646912553599997 1.34587170943 1.88623351729
Ga 8.97101323036 1.32927835943 1.85920367229
Ga 1.01721384894 3.1858592455099997 1.89376061641
In 6.32353582394 3.1692658955099997 1.8667307714099999
Ga 4.361488100260001 5.8934111090300005 6.713864561509999
Al 9.667810075260002 5.876817759030001 6.686834716509999
Ga 0.9683454768449999 5.963626753670001 -0.024343232275
In 6.2746674518450005 5.947033403670001 -0.051373077275
Ga 4.390857688155 3.1032651413300005 4.813474787275
In 9.697179663155 3.0866717913300006 4.786444942275
In 1.732519577295 1.4430909329700001 4.832443964735
Al 7.038841552295 1.4264975829700002 4.8054141197349995
In 3.676172887705 7.65521837203 9.648295770265
In 8.982494862705 7.63862502203 9.621265925265
Al 0.9417459987000002 0.30063160599 9.676486277159999
Al 6.2480679736999996 0.28403825599 9.64945643216
Al 4.466847487700001 8.79761486419 4.784870241479999
In 9.773169462700002 8.78102151419 4.75784039648
Ga 1.8013064226000002 4.81608986159 4.8114279475799995
In 7.107628397600001 4.79949651159 4.78439810258
In 3.6072870638000003 4.28215660859 9.649928571059998
In 8.913609038799999 4.26556325859 9.622898726059999
In 3.678196068755 1.4369999737000003 7.604126291505
Al 8.984518043755003 1.4204066237000001 7.577096446505
In 1.709413954445 7.647925514640001 2.747988358815
Al 7.015735929445 7.631332164640001 2.7209585138149994
Ga 4.357341545505 5.9530224032 2.7399869766549996
Ga 9.663663520505 5.9364290532 2.7129571316549996
Al 1.0302684776950002 3.1319030851400003 7.612127673664999
Ga 6.336590452695001 3.1153097351400003 7.585097828665
O 4.461958207435001 6.08064236524 8.612367403624999
O 9.768280182435 6.06404901524 8.585337558625
O 0.9361435473650002 3.0109436140200003 3.794368180855
O 6.242465522365 2.9943502640200004 3.767338335855
O 3.584746415385 1.5336671395400001 3.785655374135
O 8.891068390385 1.5170737895400002 3.7586255291349997
O 1.8133553394150002 7.55791883972 8.621080210345
O 7.119677314415 7.54132548972 8.594050365345
O 2.8172010354350006 0.092660031 6.081564092384999
O 8.123523010435001 0.076066681 6.054534247385
O 2.554770368965 8.98233755578 1.208002373055
O 7.861092343965001 8.96574420578 1.1809725280549999
O 5.194369544185 4.603372588500001 1.2087752271349999
O 10.500691519185 4.586779238500001 1.181745382135
O 0.177601860215 4.47162499828 6.080791238304999
O 5.483923835214999 4.45503164828 6.053761393305
O 0.108851953505 7.502603804940001 1.147764637475
O 5.415173928505 7.486010454940001 1.120734792475
O 5.262327622095 1.57189110328 5.986736097084999
O 10.568649597095002 1.55529775328 5.959706252085
O 2.613499661755 2.9766253654400003 5.995686045325
O 7.919821636755001 2.9600320154400004 5.968656200324999
O 2.757679913845 6.097869542780001 1.138814689235
O 8.064001888844999 6.081276192780001 1.1117848442349998
O 5.212813144000001 7.575508982280001 6.132221363349999
O 10.519135119 7.558915632280001 6.10519151835
O 0.1600490678 1.5000541178800002 1.33179404933
O 5.4663710428000005 1.4834607678800003 1.30476420433
O 2.8179932671000003 3.03327945468 1.31323986953
O 8.1243152421 3.01668610468 1.28621002453
O 2.5548689447 6.04228364548 6.15077554315
O 7.8611909197 6.0256902954800005 6.12374569815
O 1.963223178575 1.56273928951 8.378135652534999
O 7.269545153575001 1.5461459395100001 8.351105807535
O 3.432206154025 7.527150149610001 3.5052530902249996
O 8.738528129025001 7.510556799610001 3.4782232452249997
O 0.774543320125 6.084602578210001 3.5235108431249995
O 6.080865295125 6.068009228210001 3.4964809981249996
O 4.620886012475 3.00528686091 8.359877899634998
O 9.927207987475 2.98869351091 8.332848054634999
O 4.48065367764 0.02347140494 8.69982076889
O 9.78697565264 0.00687805494 8.67279092389
O 0.9181409273600001 9.06855441806 3.84259733011
O 6.22446290236 9.051961068059999 3.81556748511
O 3.5572899179400004 4.544505026140001 3.84384446723
O 8.86361189294 4.5279116761400005 3.81681462223
O 1.8415046870600003 4.54752079686 8.69857363177
O 7.147826662060001 4.53092744686 8.67154378677
