80

Al 1.61143769118 7.351942308639999 6.44189013755
Al 6.64768029118 7.337980988639999 6.426212502549999
Al 3.4741031881399995 1.2793557417799999 1.8125020281500002
Al 8.51034578814 1.26539442178 1.79682439315
Al 0.9607800587799998 3.03036466232 1.8177572292900002
Al 5.997022658779999 3.0164033423199994 1.80207959429
Al 4.124760820540001 5.6009333881 6.43663493641
Al 9.161003420539998 5.5869720681 6.42095730141
Al 0.91711710996 5.67854347538 -0.011222235105
Al 5.95335970996 5.66458215538 -0.026899870105
Al 4.157165700039999 2.94770568962 4.615226445105
Al 9.193408300039998 2.93374436962 4.599548810105
Al 1.6346737891599998 1.36606654794 4.625418655725
Al 6.670916389159999 1.35210522794 4.609741020725
Al 3.4681828008399997 7.272997047059999 9.243529604275
Al 8.504425400839999 7.259035727059999 9.227851969275001
Al 0.87534656262 0.26947021191 9.25266155787
Al 5.911589162619999 0.25550889191 9.236983922870001
Al 4.2274528798199995 8.369567754230001 4.59775681403
Al 9.263695479819997 8.355606434230001 4.58207917903
Al 1.69888011902 4.57767497543 4.61122331073
Al 6.7351227190200005 4.56371365543 4.59554567573
Al 3.40391932342 4.061362990709999 9.239195061170001
Al 8.44016192342 4.047401670709999 9.22351742617
In 3.4760430171000003 1.3560285656 7.278763729115001
In 8.5122856171 1.3420672456 7.263086094115001
In 1.61464114262 7.2775760822199995 2.643318365585
In 6.65088374262 7.26361476222 2.627640730585
In 4.1283443251 5.6647080139999995 2.637858521565
Al 9.164586925099998 5.6507466939999995 2.622180886565
Al 0.96233983462 2.96889663382 7.284223573135001
In 5.998582434619999 2.95493531382 7.268545938135
O 4.216452472019999 5.77588373934 8.252041646815
O 9.252695072019998 5.76192241934 8.236364011815
O 0.88028932906 2.86043756764 3.6342085864850002
O 5.91653192906 2.84647624764 3.6185309514850004
O 3.39456259122 1.4547807779 3.6284417781450005
O 8.430805191220001 1.4408194579 3.612764143145
O 1.70217920986 7.181540529079999 8.257808455155
O 6.738421809859999 7.1675792090799995 8.242130820155001
O 2.6622140525 0.0784348129 5.819303937455
O 7.698456652499999 0.0644734929 5.803626302455
O 2.4194407927399997 8.55112047504 1.1750558374450002
O 7.455683392739999 8.53715915504 1.1593782024450001
O 4.926112992499999 4.3826466389 1.173381886705
O 9.9623555925 4.3686853189 1.157704251705
O 0.15554185274 4.24690864904 5.820977888195
O 5.1917844527399994 4.23294732904 5.805300253195
O 0.09864506202 7.141496430519999 1.110245586665
O 5.134887662019999 7.127535110519999 1.094567951665
O 4.982552602739999 1.4878538265399999 5.735875083435
O 10.01879520274 1.4738925065399997 5.720197448435
O 2.4680893140199998 2.8244401901200002 5.741744213215
O 7.50433191402 2.8104788701200003 5.726066578215001
O 2.6131083507399997 5.80491006694 1.104376456885
O 7.649350950739999 5.79094874694 1.088698821885
O 4.93329190104 7.203830933749999 5.88511584238
O 9.969534501039998 7.189869613749999 5.86943820738
O 0.14887727224 1.42595501393 1.27601292542
O 5.1851198722400005 1.41199369393 1.2603352904200003
O 2.67103663664 2.8867209098300006 1.2659997773200002
O 7.70727923664 2.8727595898300002 1.2503221423200002
O 2.41113253664 5.74306503785 5.89512899048
O 7.447375136639999 5.72910371785 5.8794513554800005
O 1.8468665364799999 1.47380381576 8.015607590465
O 6.88310913648 1.45984249576 7.999929955465
O 3.24833228048 7.161825511999998 3.370335664135
O 8.28457488048 7.147864191999998 3.354658029135
O 0.72641044928 5.7873976488 3.3802209104350003
O 5.76265304928 5.7734363288 3.364543275435
O 4.36878836768 2.84823167896 8.005722344165001
O 9.40503096768 2.83427035896 7.990044709165001
O 4.236038968919999 0.00849512675 8.32533035196
O 9.27228156892 -0.00546619325 8.30965271696
O 0.86110286508 8.62800558225 3.6906290980400005
O 5.89734546508 8.61404426225 3.67495146304
O 3.3673950117199998 4.32139089379 3.68915979018
O 8.403637611719997 4.30742957379 3.6734821551800003
O 1.7297468222799999 4.31510981521 8.32679965982
O 6.765989422279999 4.30114849521 8.311122024820001
