80

Al 10.690224732645 1.14056e-06 1.1890864778599999
Al 10.690214307645 3.04367863056 1.18911710786
Ga 22.785283837645004 2.83056e-06 1.20124611786
Al 22.785273412645004 3.04368032056 1.20127674786
Al -0.078989987645 -1.38056e-06 4.56957738214
Ga -0.0790004126449999 3.0436761094399998 4.569608012140001
Al 12.016069117355002 3.0944e-07 4.5817370221400004
Al 12.016058692355003 3.0436777994399997 4.581767652140001
Al 4.642689967645 1.5218390405599997 1.18302197286
Al 4.642679542645 4.56551653056 1.18305260286
In 16.737749072645002 1.52184073056 1.19518161286
In 16.737738647645003 4.56551822056 1.19521224286
Al 5.968534352355 1.52183820944 4.57567251714
Ga 5.968523927355 4.56551569944 4.5757031471400005
Al 18.063593457355 1.52183989944 4.58783215714
In 18.063583032355 4.56551738944 4.587862787140001
In 9.154035983845 1.5218388423099998 3.9523434671600004
Al 9.154025558845 4.56551633231 3.9523740971600003
In 21.249095088845003 1.52184053231 3.9645031071600005
Al 21.249084663845004 4.565518022309999 3.9645337371600005
Al 1.457188336155 1.52183840769 1.8063510228400002
Al 1.457177911155 4.565515897689999 1.80638165284
Al 13.552247441155002 1.52184009769 1.81851066284
In 13.552237016155 4.56551758769 1.81854129284
Ga 3.1065116438450007 -7.4769e-07 3.9462483321600006
Al 3.1065012188450005 3.04367674231 3.9462789621600005
Al 15.201570748845 9.4231e-07 3.9584079721600003
Al 15.201560323845001 3.04367843231 3.9584386021600007
Ga 7.504723101155001 5.0769e-07 1.81241552784
Al 7.504712676155001 3.0436779976899997 1.8124461578400002
Al 19.599782206155 2.19769e-06 1.8245751678400002
Al 19.599771781155003 3.04367968769 1.82460579784
O 9.354182634515 5.5422e-07 2.5212783664200002
O 9.354172209515001 3.04367804422 2.52130899642
O 21.449241739515 2.24422e-06 2.53343800642
O 21.449231314515 3.04367973422 2.5334686364200003
O 1.257052110485 -7.9422e-07 3.2373854935799997
O 1.257041685485 3.04367669578 3.2374161235799996
O 13.352111215485001 8.9578e-07 3.24954513358
O 13.352100790485002 3.04367838578 3.2495757635799998
O 3.3066478695150003 1.5218384542199999 2.51521386142
O 3.306637444515 4.56551594422 2.5152444914200003
O 15.401706974515003 1.5218401442199998 2.52737350142
O 15.401696549515004 4.56551763422 2.52740413142
O 7.304576450485002 1.52183879578 3.24348062858
O 7.304566025485001 4.565516285779999 3.24351125858
O 19.399635555485002 1.5218404857799999 3.2556402685799997
O 19.399625130485003 4.56551797578 3.25567089858
O 8.778770672275 -3.0655e-07 5.1245420552
O 8.778760247275 3.04367718345 5.1245726852
O 20.873829777275 1.38345e-06 5.1367016952
O 20.873819352275 3.0436788734499998 5.136732325200001
O 1.8324640727250003 6.655e-08 0.6341218048
O 1.8324536477250004 3.04367755655 0.6341524348
O 13.927523177725002 1.75655e-06 0.6462814448
O 13.927512752725002 3.04367924655 0.6463120748000001
O 2.7312359072750003 1.52183759345 5.118477550200001
O 2.731225482275 4.565515083449999 5.1185081802
O 14.826295012275002 1.5218392834499999 5.130637190200001
O 14.826284587275003 4.56551677345 5.1306678202
O 7.879988412725002 1.5218396565499999 0.6402169398
O 7.879977987725001 4.5655171465499995 0.6402475698000001
O 19.975047517725002 1.5218413465499998 0.6523765798000001
O 19.975037092725003 4.56551883655 0.6524072098
O -1.05410647556 1.5218373177699998 4.26971658902
O -1.05411690056 4.56551480777 4.26974721902
O 11.040952629440001 1.52183900777 4.28187622902
O 11.04094220444 4.56551649777 4.28190685902
O 11.665330795560001 1.52183993223 1.4889779009800002
O 11.66532037056 4.565517422229999 1.48900853098
O 23.76038990056 1.52184162223 1.50113754098
O 23.76037947556 4.56551911223 1.50116817098
O 4.993428289440001 -5.8223e-07 4.27578109402
O 4.9934178644400005 3.0436769077699997 4.27581172402
O 17.08848739444 1.10777e-06 4.28794073402
O 17.088476969440002 3.0436785977699996 4.287971364020001
O 5.61780645556 3.4223e-07 1.4828827659800001
O 5.61779603056 3.0436778322299998 1.48291339598
O 17.71286556056 2.03223e-06 1.49504240598
O 17.71285513556 3.0436795222299997 1.4950730359800002
