40

Al 0.04875252375 -0.02036561625 12.590254635
Ga 0.00696464625 -0.00290937375 1.798607805
Ga 0.051803945358846 3.5094473507762913 11.395441782549675
Ga 3.0712729346411543 1.752578629223709 2.987729737450325
Ga 3.055817885 -0.00650908 -0.01207959
Ga -1.52213803 2.649159565 0.00923413
Al 1.5336798550000001 2.6426504850000003 -0.00284546
Ga -1.499718334108846 4.40533790047371 4.8076512624503245
In 0.0224196958911539 1.756178335473709 4.798417132450325
In 1.5560995508911541 4.39882882047371 4.795571672450325
Ga 1.5669773291088458 0.8631971595262908 9.587599847549676
Al 4.622795214108846 0.8566880795262909 9.575520257549675
In 3.100657184108846 3.5058476445262916 9.584754387549674
In 0.0378746534160177 3.5152660980435413 7.7982263164383
Ga 3.0852022265839825 1.746759881956459 6.5849452035617
In 0.027858585 -0.011637495 7.19443122
O 4.575778018141155 0.8862394199237092 13.197001679450326
O 3.114525509341154 3.4294326023237094 13.205866444250326
O 1.642192848541154 0.8924881367237092 13.208598085850324
O 1.4808840314588467 4.369537843276292 1.1745734341496752
O -1.4527011381411539 4.375786560076292 1.1861698405496752
O 0.008551370658846 1.832593377676291 1.1773050757496752
O 0.04150929165 -0.01733986755 10.7197025178
O 0.01420787835 -0.00593512245 3.6691599222
O 0.0590471780160177 3.5064216018435412 13.265994043638301
O 3.0640297019839826 1.755604378156459 1.1171774763617006
O 1.636414313083982 2.589824101256459 10.764535701561702
O 3.097666821883982 0.046630918856459 10.755670936761701
O 4.569999482683983 2.583575384456459 10.7529392951617
O -1.446922602683982 2.6784505955435414 3.6302322248382994
O 1.4866625669160183 2.6722018787435413 3.6186358184382996
O 0.0254100581160181 5.215395061143541 3.6275005832382994
O -1.5467356227499998 4.4348892944500005 8.429132397
O 0.0362879284500001 1.6797633468500002 8.4195289018
O 1.6313149776500009 4.428119851250001 8.4165696234
O 1.4917619023500004 0.83390612875 5.9666018966
O 4.66981250275 0.8271366855500001 5.954039123
O 3.08678895155 3.5822626331500005 5.9636426182
O 0.030631420758846 3.5182918469762914 5.927674055349676
O 3.0924454592411545 1.743734133023709 8.455497464650326
