40

In 3.0268245569696997 1.7405932440955698 0.6166016894648055
In 0.0265222199077488 -0.0216156682581484 14.244699047119886
Ga -1.5013332980303002 4.36216062909557 2.486902014464805
Al 0.0069091919696999 1.7418028790955695 2.4800711694648054
Al 1.5220414869696997 4.35813155909557 2.481436764464805
Ga 3.0337433969696996 1.7349543740955697 4.332610149464806
Al 4.550048128122551 0.8554597441625788 7.425185118415307
In 3.0418056381225513 3.475817494162579 7.432015963415307
Al 1.5266733431225514 0.8594888141625787 7.430650368415307
In 0.0092251199077488 -0.0075184932581484 4.954677897119887
Al 0.0196033799077488 -0.0159767982581484 10.528690587119886
In 0.0218902731225513 3.4770271291625794 9.295485443415307
Ga 1.538195094907749 2.5975324467418517 12.388060412119886
Al 3.046437584907749 -0.0228253032581484 12.381229567119886
Al -1.4851796900922511 2.6015615167418518 12.393525662119886
In 3.0441216569696996 1.7264960690955697 9.906622839464806
O 1.4570631067225515 2.6494033059625792 1.2649724194153074
O 0.0091503163225518 5.164946745962579 1.2715300306153074
O -1.4453766868774487 2.653271213162579 1.2702190594153073
O 3.0509021201696997 1.7209699764955697 13.548311130264805
O 0.0024446567077488 -0.0019924006581484 1.3129896063198871
O -1.4202014004774486 4.31028982236258 13.609990007415307
O 0.0277113899225516 1.7947463823625789 13.603432396215307
O 1.4822383931225516 4.30642191516258 13.604743367415308
O -1.554789926492251 4.391476008541852 6.227847713119887
O 0.0137822631077489 1.6663039485418516 6.220743634319887
O 1.5895198499077496 4.3872857757418515 6.222163853119887
O 0.0113736363225513 3.4855982115625794 3.647152584215307
O 3.0373411937697 1.7320221616955698 6.264934548664805
O 4.603504756307748 0.8261443649418516 3.684239271119887
O 3.0349325667077482 3.551316424941852 3.691343349919887
O 1.4591949799077488 0.8303345977418516 3.689923131119887
O 4.4965915905697 0.8847750708955697 11.166130965464804
O 3.0486788001696996 3.4003185108955702 11.172688576664806
O 1.5941517969696997 0.8886429780955697 11.171377605464805
O 0.0160055831077488 -0.0130445858581484 8.596366187919887
O 0.0254880699225513 3.474094916762579 11.227809842615306
O 1.5916517233696998 2.5682170672955698 8.647114713464806
O 3.0395645137696996 0.0526736272955696 8.640557102264806
O 4.4940915169697 2.5643491600955697 8.641868073464806
