40

Ga -0.93142310625 -0.05331704 12.87287491875
In -0.13306044375 -0.00761672 1.83898213125
In 2.502757439891821 -0.0936923024725775 11.458670841719778
Ga 6.46917984010818 -0.1036006875274225 2.6885385282802217
Al 5.80387762135818 -0.1416842875274225 11.883449184530223
Ga 3.168059658641821 -0.0556087024725775 2.2637601854697786
In 5.018210415 -0.068179615 -0.28232384
In 3.848851626358179 1.4862500624725774 4.676760874530221
Ga 5.166760528641822 1.4432122725274226 9.486605085469778
Ga 10.18497094364182 1.3750326575274225 9.204281245469778
Ga 8.86706204135818 1.4180704474725774 4.394437034530221
Ga 1.317908981358179 -0.0430377925274225 4.809844499530222
Al 7.654028298641821 -0.1542551974725775 9.337364870469779
In 2.7688783167469855 -0.0784588630819151 7.78070672633835
Ga 6.2030589632530155 -0.1188341269180849 6.366502643661651
Ga -0.532241775 -0.03046688 7.355928525
O 9.95140420320818 1.4217782352725776 12.905206434980222
O 9.102375776791822 1.4963950827274224 0.6941581086197787
O 4.0824183667918215 1.4395044847274223 0.9758356850197787
O 4.93144679320818 1.3648876372725776 13.186884011380222
O -0.79304024475 -0.0453956512 10.96033350225
O -0.27144330525 -0.0155381088 3.75152354775
O 7.31922385240818 -0.1686811339274225 13.043613404980222
O 1.6527134275918212 -0.0286118560725775 1.1035959650197786
O 2.3643745677469856 -0.1016136918819151 13.37121240533835
O 6.607562712253015 -0.0956792981180849 0.775996964661651
O 6.718236340153014 1.353428900281915 10.595524536961651
O 2.2956288198469856 1.450963221718085 3.567195159438349
O 7.315586229846986 1.507853819718085 3.285517583038349
O 11.738193750153016 1.410319498281915 10.313846960561651
O 4.288531400953015 -0.1146874405180849 10.723284816961652
O 4.683405879046986 -0.0826055494819151 3.423924553038349
O 3.61528480685 1.5329956428 8.37768577545
O 5.40207434315 1.5215369051999998 5.78632644815
O 10.41853776315 1.3282870772 5.50335634455
O 8.631748226850002 1.3397458147999999 8.09471567185
O 2.907261188891821 -0.0705374736725775 5.868165162719779
O 6.06467609110818 -0.1267555163274225 8.279044207280222
O 0.9831044560500001 -0.0574637264 8.516092745449999
O 7.98883282395 -0.1398292636 5.63111662455
