80

Al 1.69577854907 7.60209181662 6.62191551906
Ga 6.90266644907 7.57661224162 6.59504434906
Ga 3.59850004079 1.31681166038 1.8576888828000002
Ga 8.80538794079 1.2913320853799999 1.8308177128
Ga 1.00382043447 3.1317067739199995 1.86629286414
Ga 6.21070833447 3.1062271989199997 1.8394216941400001
Al 4.2904581553900005 5.78719670308 6.61331153772
Ga 9.497346055389999 5.76171712808 6.58644036772
In 0.9605821328199999 5.865826307235 -0.02054852957
Ga 6.167470032820001 5.840346732235 -0.04741969957
In 4.314303702179999 3.0430191377650004 4.74067262457
Ga 9.52119160218 3.0175395627650006 4.71380145457
Ga 1.70287638962 1.4141916975850002 4.758509274290001
Ga 6.909764289619999 1.388712122585 4.73163810429
Al 3.6212296353800006 7.520181747415001 9.50344301071
In 8.828117535379999 7.494702172415001 9.476571840710001
Ga 0.9252297722100001 0.288868734 9.52705444035
Ga 6.132117672209999 0.263389159 9.50018327035
Ga 4.39877781241 8.645453655 4.71581418827
In 9.60566571241 8.61997408 4.68894301827
In 1.77624321281 4.732706593700001 4.73977405847
Ga 6.98313111281 4.7072270187 4.71290288847
In 3.5477643718100005 4.2016157953 9.503094570150001
Ga 8.754652271809999 4.1761362203 9.476223400150001
Al 3.61226639191 1.4033221072650002 7.487256777770001
Ga 8.81915429191 1.3778425322650003 7.460385607770001
Ga 1.6908718321499998 7.520176409735 2.70987669829
Ga 6.89775973215 7.494696834735 2.68300552829
In 4.286245643909999 5.848026272515001 2.7008900156699998
Al 9.49313354391 5.822546697515 2.67401884567
Ga 1.01689258015 3.0754722444850007 7.496243460390001
Ga 6.22378048015 3.049992669485001 7.469372290390001
O 4.38949016373 5.970198258705 8.48257467647
O 9.596378063729999 5.944718683705001 8.45570350647
O 0.9240827406100001 2.9587121942950008 3.73742637587
O 6.13097064061 2.9332326192950005 3.7105552058700004
O 3.5204978605300004 1.5006795215550002 3.72786564133
O 8.72738576053 1.4751999465550003 3.7009944713300005
O 1.79307504381 7.428230931445 8.49213541101
O 6.999962943809999 7.402751356445001 8.46526424101
O 2.7649661375700005 0.082974384305 5.98748729779
O 7.971854037569999 0.057494809305 5.96061612779
O 2.5226185064499997 8.832457284695 1.19442847023
O 7.7295064064500005 8.806977709695 1.1675573002300002
O 5.105149517569999 4.519525085555 1.19252176129
O 10.31203741757 4.494045510555 1.1656505912900001
O 0.18243512645 4.395906583445001 5.98939400673
O 5.389323026449999 4.3704270084450005 5.96252283673
O 0.11994070517 7.380837657915 1.13437727103
O 5.326828605169999 7.355358082915 1.10750610103
O 5.16685641581 1.5341855630849999 5.89486924595
O 10.37374431581 1.5087059880849998 5.86799807595
O 2.5700941931699997 2.920845747665 5.90462133113
O 7.776982093170001 2.895366172665 5.87775016113
O 2.71670292781 5.994177473335 1.12462518585
O 7.923590827809999 5.968697898335 1.09775401585
O 5.12872636642 7.441024168799999 6.04159538493
O 10.33561426642 7.4155445938 6.01472421493
O 0.15974424102 1.4748670042 1.31207329051
O 5.36663214102 1.4493874292000002 1.2852021205100002
O 2.7705641238200003 2.9787925901000003 1.2945715044100001
O 7.97745202382 2.9533130151 1.2677003344100002
O 2.5179064836199996 5.9370985829 6.05909717103
O 7.724794383619999 5.9116190079 6.032226001030001
O 1.9296871492399998 1.529574494825 8.24945651907
O 7.136575049239999 1.5040949198250002 8.22258534907
O 3.3812278648399996 7.397957446175001 3.45528581101
O 8.588115764840001 7.3724778711750005 3.4284146410100003
O 0.77084186044 5.983247470475001 3.4725484088100003
O 5.97772976044 5.957767895475001 3.44567723881
O 4.54007315364 2.9442844705250004 8.23219392127
O 9.74696105364 2.9188048955250006 8.20532275127
O 4.39729984324 0.01059583632 8.56515715405
O 9.604187743239999 -0.01488373868 8.53828598405
O 0.9169621437600001 8.918672008680002 3.78842949295
O 6.12385004376 8.893192433680001 3.7615583229500005
O 3.4987989494400002 4.46299483322 3.78690548529
O 8.70568684944 4.43751525822 3.7600343152900004
O 1.8154630375600003 4.46627301178 8.566681161710001
O 7.022350937560001 4.44079343678 8.539809991710001
