80

Al 7.032947185 2.3427281499999997 7.003592145
Ga 2.34280206 7.010942995000001 7.025382554999999
Al 7.0094247 7.030958025 2.333075515
Al 7.022217405 7.02198393 7.012307235
Ga 2.3300093549999996 7.019917090000001 2.346150835
In 7.02015448 2.351702245 2.324360425
Ga 2.35353184 2.3316872149999996 7.016667464999999
Ga 2.3407391349999997 2.3406613099999998 2.337435745
Ga 7.02191556754 4.36865369446 4.6677412038799995
Ga 2.31897773754 9.04584263446 0.01029989388
Ga 7.00766361246 5.01400657554 -0.01030526388
In 4.6752434760599995 7.02156074846 4.36104127804
Al 0.01935061606 2.32228993846 9.044633228039999
Al -0.00243206106 7.00929933654 5.01049211196
Al 4.36967437904 4.67608478892 7.01537647176
Ga 9.04702679904 0.01684403892 2.31435434176
Al 5.016804645960001 -0.00166942392 7.004883138239999
Ga 2.3410409724599996 4.99399154554 4.68200177612
Al 7.01839339246 0.33475079554 -0.01902035388
Al 2.3297075175399997 4.36658685446 0.00158480388
Ga 4.6877130639399995 2.34108449154 4.98870170196
Al -0.01522476606 7.01827343154 0.33126039196
Al 0.00655791106 2.33126403346 4.36540150804
Ga 4.993282160960001 4.68656045108 2.33436650824
Ga 0.33738930096 -0.01271035892 7.01795845824
In 4.36761145404 0.00580310392 2.32742966176
In 2.35177075246 0.31473576554 4.67328668612
Al 4.67492035894 2.35005858654 0.30946998196
Al 0.31386681596 4.6755195160800005 2.34744182824
Al 7.01118578754 9.04790947446 4.676456293879999
In 4.688036181059999 7.01258665346 9.040272998039999
Ga 9.04908972404 4.68712572392 7.002301151759999
O 5.8108683688 3.6610947667200002 6.12975382022
O 3.5588292802799995 8.331676638200001 7.904136190539999
O 8.22669345912 5.715965668 1.44752271306
O 5.8110002418 5.6978760270799995 7.89294472618
O 6.136091900749999 5.80974513163 3.6528110968
O 7.91349506987 3.55887965379 8.32294325328
O 1.4566746895299998 8.22800449681 5.71056329352
O 7.901129689849999 5.80998381777 5.6880398064
O 3.66108828263 6.13668971673 5.8034566306399995
O 8.33032873195 7.91143839061 3.54762695888
O 5.71869535965 1.45758125499 8.222241195519999
O 5.69727897577 7.90090373767 5.801032664959999
O 3.5520881712 5.701550473279999 3.2199891597799994
O 5.80412725972 1.0309686018 1.44560678946
O 1.1362630808799998 3.6466795720000005 7.90222026694
O 3.5519562981999995 3.66476921292 1.45679825382
O 3.2268646392499996 3.5529001083700003 5.6969318831999995
O 1.4494614701299997 5.80376558621 1.02679972672
O 7.906281850469999 1.1346407431899999 3.63917968648
O 1.4618268501499998 3.55266142223 3.6617031736
O 5.70186825737 3.22595552327 3.54628634936
O 1.03262780805 1.45120684939 5.80211602112
O 3.6442611803499996 7.90506398501 1.12750178448
O 3.6656775642299997 1.4617415023300002 3.5487103150399997
O 1.1079305388 8.33828370672 1.4723125102199999
O 8.23618170028 3.6724358882 3.2031140605399995
O 3.5708005991199996 1.016694858 6.13111466306
O 1.1295219718 1.01655340708 3.2180732361799995
O 1.4801990407499999 1.1104743216299997 8.3364030468
O 3.21055723987 8.236068593790002 3.66550194328
O 6.13402710953 3.5687637468099997 1.00954116352
O 3.21965141985 1.1286611977699998 1.0131683164
O 8.33844070263 1.4774489667300001 1.1024345006399998
O 3.6744358719499997 3.2121675806099996 8.231218908879999
O 1.0157575296499999 6.13477019499 3.56479988552
O 1.01580070577 3.21958111767 1.12616117496
O 8.255026001200001 1.0243615332799998 7.877430469779999
O 1.12677483972 5.690209351799999 6.14662891946
O 5.79215594088 8.345950382 3.2186283169399994
O 8.2334345682 8.346091832920001 6.13166974382
O 7.882757499249999 8.25217091837 1.0133399332
O 6.15239930013 1.1265766462099998 5.68424103672
O 3.2289294304699996 5.79388149319 8.34020181648
O 6.14330512015 8.23398404223 8.3365746636
O 1.02451583737 7.88519627327 8.247308479359999
O 5.68852066805 6.150477659390001 1.11852407112
O 8.34719901035 3.2278750450099998 5.78494309448
O 8.34715583423 6.143064122330001 8.22358180504
