80

Ga 7.3914676175 2.4596527225 7.384215967499999
Ga 2.4629949525 7.380910087499999 7.3935945924999995
In 7.3842142875 7.390213567499999 2.4646487825
Al 7.3880043675 7.384618447499999 7.389625432499999
Al 2.4592048725 7.386505207499999 2.4686179425
Ga 7.3876775375 2.4652478425 2.4592393175
In 2.4664582024999997 2.4559443625 7.388185127499999
Ga 2.4626681225 2.4615394825 2.4632084775
In 7.3880764535 4.5900354757 4.92406453138
In 2.4558137085 9.5168879607 0.00846650638
In 7.3838153715 5.2654259343 -0.00017643138
Al 4.92334689456 7.38594229566 4.5942232753
Ga 0.00559080956 2.45167309066 9.5177596203
Al -0.00114706956 7.38147299934 5.2679892597
In 4.59233064478 4.92002923652 7.38917518288
In 9.51701322978 0.00436699152 2.4548199078799997
Ga 5.26559517522 -0.00443215152 7.3832259121199995
In 2.4625960365 5.2561224543 4.928769378619999
Ga 7.3872786215 0.3404602093 -0.00558589638
In 2.4592769585 4.591922235699999 0.00305704138
In 4.92732559544 2.46021563434 5.2586106347
In -0.00493714956 7.387068119339999 0.3430126097
In 0.00180072956 2.45726821066 4.5927829703
In 5.2583418452199995 4.92612869348 2.46365872712
In 0.34058576022 -0.00814051152 7.387195072119999
Ga 4.59200381478 0.00065863152 2.4587890678799997
In 2.4660592864999997 0.3311567293 4.92335991362
In 4.92353551544 2.46581075434 0.3336339847
In 0.33333243022 4.92242033348 2.46762788712
Ga 7.3846132035 9.515001200699999 4.92947399638
Ga 4.92713697456 7.38034717566 9.519199925299999
In 9.51734005978 4.92373759652 7.385206022879999
O 6.10927599806 3.8485807659100004 6.460877808029999
O 3.74323329894 8.76966271299 8.31998369023
O 8.66498083686 6.003389289209999 1.53619572157
O 6.10919109114 5.99376205689 8.31502755517
O 6.46028176504 6.10744748348 3.8528319389799996
O 8.31753774508 3.7392631588399996 8.77371964162
O 1.5351239349199999 8.66228182816 6.00690384018
O 8.31373777996 6.10640235452 5.998629354219999
O 3.85151327773 6.457517019919999 6.11096438096
O 8.77340127233 8.31569815012 3.7450403877999996
O 6.00425147427 1.53125867748 8.6648122202
O 5.99751520067 8.31092097748 6.111267786039999
O 3.74139649194 5.99757716409 3.3919561019699995
O 6.10743919106 1.07649521701 1.5328502197699998
O 1.18569165314 3.84276864079 8.31663818843
O 3.74148139886 3.85239587311 1.5378063548299998
O 3.3903907249599996 3.73871044652 6.00000197102
O 1.53313474492 6.1068947711599995 1.07911426838
O 8.31554855508 1.18387610184 3.8459300698199996
O 1.53693471004 3.73975557548 3.85420455578
O 5.99915921227 3.38864091008 3.7418695290399997
O 1.07727121767 1.53045977988 6.1077935222
O 3.8464210157300003 8.31489925252 1.1880216897999998
O 3.85315728933 1.53523695252 3.7415661239599998
O 1.17701325306 8.77543325091 1.5452797830299998
O 8.667915883940001 3.85400046799 3.3856284152299994
O 3.7472247518599997 1.06912008421 6.45973206657
O 1.18385484614 1.0706830918899999 3.3886106001699994
O 1.5425256800399998 1.17317827848 8.77636828398
O 3.3852750000799996 8.66611564384 3.8581216166199996
O 6.459806519920001 3.7466195831599998 1.07254856518
O 3.38840153496 1.18332338952 1.07221239922
O 8.77619586273 1.54185477492 1.17660910596
O 3.85564518733 3.3814289451199997 8.6685767328
O 1.0719887292699999 6.458111162479999 3.7492141951999995
O 1.0721789556699999 3.3878420124799997 1.1848508310399999
O 8.67365923694 1.07072467909 8.307554126969999
O 1.1827566060599999 5.992157462009999 6.46720549477
O 6.10344773814 8.77703784579 3.3931018434299993
O 8.666817643860002 8.77547483811 6.4642233098299995
O 8.30814680996 8.67297965152 1.0764656260199998
O 6.465397489920001 1.1800422861599997 5.994712293379999
O 3.39086597008 6.09953834684 8.78028534482
O 6.46227095504 8.66283454048 8.78062151078
O 1.07447662727 8.30430315508 8.676224804039999
O 5.99502730267 6.464728984879999 1.1842571772
O 8.77868376073 3.3880467675199997 6.1036197148
O 8.77849353433 6.458315917519999 8.667983078959999
