80

In 1.6949286298600001 7.57691645365 6.602337203119999
In 6.881750279859999 7.54821594865 6.574915588119999
Ga 3.5857184467999996 1.3102850303500002 1.8517257545999999
In 8.772540096799998 1.2815845253500002 1.8243041396
Ga 1.00218718526 3.12122696127 1.8608242233799999
Al 6.18900883526 3.09252645627 1.83340260838
In 4.2784598914 5.7659745227300006 6.593238734339999
Ga 9.4652815414 5.737274017730001 6.565817119339999
Ga 0.9606230196899999 5.847126591785 -0.019932819965
Ga 6.1474446696900005 5.818426086785 -0.047354434965
Ga 4.3002285553099995 3.0304303632150003 4.726007784965
In 9.48705020531 3.001729858215 4.698586169965
Ga 1.69781852399 1.408281265075 4.743919930704999
Ga 6.884640173989999 1.379580760075 4.7164983157049996
Al 3.6132754410100003 7.493754189925 9.474814914295
Ga 8.800097091009999 7.465053684925 9.447393299295
Al 0.92304544671 0.28645288296 9.497855388
Ga 6.1098670967099995 0.25775237796 9.470433773
Ga 4.38794803351 8.61553361504 4.70185413724
Ga 9.57476968351 8.58683311004 4.67443252224
Ga 1.7730173673099998 4.71651585514 4.72561162314
Ga 6.95983901731 4.68781535014 4.698190008139999
Ga 3.53797611291 4.18547064286 9.474097902099999
Ga 8.724797762909999 4.156770137860001 9.446676287099999
Ga 3.6001922617899997 1.395965592545 7.464094681764999
Ga 8.78701391179 1.367265087545 7.436673066765
Ga 1.6894984450699997 7.495642021455001 2.7022470543549995
Ga 6.87632009507 7.466941516455 2.6748254393549997
Ga 4.2738122462899995 5.827004381895001 2.6927832518149994
Ga 9.46063389629 5.798303876895001 2.6653616368149997
Ga 1.01587846057 3.064603232105001 7.473558484304999
Ga 6.2027001105699995 3.0359027271050008 7.446136869305
O 4.37746154249 5.948164764345001 8.456797236165
O 9.56428319249 5.919464259345 8.429375621164999
O 0.9228805510500001 2.9486322916550005 3.7262283945149997
O 6.109702201049999 2.9199317866550003 3.698806779515
O 3.50836816179 1.493451089135 3.716216591335
O 8.69518981179 1.464750584135 3.688794976335
O 1.7919739317499999 7.403345966865 8.466809039345
O 6.978795581749999 7.374645461865001 8.439387424345
O 2.75512400813 0.080375375265 5.968861216404999
O 7.941945658129999 0.051674870265 5.9414396014049995
O 2.5186901034899996 8.803497032735 1.191479997635
O 7.70551175349 8.774796527735 1.164058382635
O 5.08852692063 4.502230003015 1.188774869655
O 10.27534857063 4.473529498014999 1.1613532546549998
O 0.18528719099 4.3816424049850005 5.971566344385
O 5.372108840989998 4.352941899985001 5.944144729384999
O 0.12432917365 7.357884450594999 1.131737332535
O 5.311150823649999 7.329183945594999 1.1043157175349998
O 5.1486810597299995 1.525596301405 5.876401323424999
O 10.33550270973 1.496895796405 5.8489797084249995
O 2.5628021791499997 2.9096253582450005 5.886595793484999
O 7.74962382915 2.8809248532450003 5.8591741784849996
O 2.7102080542299998 5.9738553937550005 1.121542862475
O 7.8970297042299995 5.945154888755001 1.094121247475
O 5.114484078169999 7.41422559749 6.023357338059999
O 10.30130572817 7.38552509249 5.99593572306
O 0.16023439647 1.47008742351 1.30821175382
O 5.3470560464700005 1.4413869185100001 1.28079013882
O 2.76195970557 2.9677202667100007 1.29061927512
O 7.9487813555699995 2.9390197617100005 1.26319766012
O 2.51275876907 5.916592754290001 6.0409498167599995
O 7.699580419069999 5.887892249290001 6.01352820176
O 1.9242670094899998 1.5228205943950002 8.224182581865
O 7.111088659489999 1.4941200893950002 8.196760966865
O 3.37336199499 7.372654622605 3.4451594152949996
O 8.56018364499 7.343954117605 3.417737800295
O 0.7721257731900001 5.963961961505001 3.4625235603949998
O 5.95894742319 5.935261456505001 3.4351019453949996
O 4.52550323129 2.9315132554950005 8.206818436765
O 9.71232488129 2.9028127504950003 8.179396821765
O 4.38144995913 0.00693104603 8.5384465885
O 9.568271609129999 -0.02176945897 8.5110249735
O 0.91959552787 8.890208708969999 3.7777562805
O 6.106417177869999 8.861508203969999 3.7503346655
O 3.48864980533 4.446637387890001 3.7754164862799997
O 8.67547145533 4.41793688289 3.74799487128
O 1.81239568167 4.4505023671099995 8.54078638272
O 6.999217331670001 4.42180186211 8.513364767719999
